%nprocshared=16
%mem=32GB
#p opt pop=hirshfeld freq=noraman b3lyp/genecp empiricaldispersion=gd3bj scrf=(smd,solvent=dichloromethane)

title

-1 1
51 0.00000000 0.00000000 0.00000000
 9 0.00000000 0.00000000 1.89277500
 9 0.00000000 1.89277500 0.00000000
 9 1.89277500 0.00000000 0.00000000
 9 0.00000000 0.00000000 -1.89277500
 9 0.00000000 -1.89277500 0.00000000
 9 -1.89277500 0.00000000 0.00000000

-C -H -N -O -F -S 0
6-31G(d)
****
-Cu -Sb
SDD
****

-Cu -Sb
SDD

