#p sp b3lyp/6-31g(d)

sdf

0 1
C  0.23402700 0.39962000 -0.00000200
C  -1.17088400 -0.14858400 -0.00000100
H  0.30089700 1.51180200 -0.00000700
H  -1.71338000 0.21921400 -0.88091800
H  -1.15470100 -1.24074600 -0.00021000
H  -1.71325600 0.21888400 0.88113500
O  1.23769700 -0.27692200 0.00000200
C  -0.30834500 0.76708800 0.88113400
C  -1.71325600 0.21888400 0.88113500
H  -0.24147500 1.87927000 0.88112900
H  -2.25575200 0.58668200 0.00021800
H  -1.69707300 -0.87327800 0.88092600
O  0.69532500 0.09054600 0.88113800

