%nprocshared=16
%mem=32GB
#p opt b3lyp/6-31g(d)

title

0 1
15 -3.52760981 0.05625564 1.02802946
 8 -3.62752643 1.53270681 1.16780672
 6 -0.01251179 0.93314323 0.44348876
 8 -0.84946203 1.99071148 0.92810594
 6 0.09572112 -0.04662780 1.60421991
 6 -1.21590608 0.13634325 2.36597092
 8 -2.29745918 -0.62573480 1.72979371
 6 -1.57290367 1.60310460 2.18018989
 6 -1.16766249 2.55812385 3.31183358
 8 0.17702466 2.30370008 3.64495146
 7 2.58163755 2.36863177 -3.64195036
 6 1.50293875 1.61449760 -3.49052663
 7 0.87938222 1.24958769 -2.40109207
 6 1.52243206 1.69817738 -1.32273942
 6 2.67450483 2.47253045 -1.27145017
 6 3.24650447 2.79194382 -2.56466814
 7 3.08679420 2.76405616 0.03410875
 6 2.15248297 2.18619092 0.76117328
 7 1.24027905 1.47771573 0.00250322
 6 -0.01838818 -1.93221730 -1.07745718
 8 -0.53038818 -0.61711730 -0.94445718
 6 -1.84868818 -1.84981730 -2.48295718
 6 -1.47868818 -0.43351730 -1.93175718
 6 -2.64168818 0.47678270 -1.40515718
 8 -3.41008818 -0.39171730 -0.41715718
 7 0.16871182 -2.44971730 0.33904282
 6 1.34531182 -3.03771730 0.61814282
 8 2.18231182 -3.26701730 -0.19295718
 7 1.53251182 -3.39111730 1.94804282
 6 0.61001182 -3.17431730 2.99144282
 6 -0.65218818 -2.57831730 2.62144282
 6 -0.79548818 -2.24581730 1.32634282
 6 -1.63438818 -2.29831730 3.69014282
 8 -1.14728818 -1.75441730 -3.84685718
 6 -1.29888818 -2.74431730 -1.47355718
 1 -0.53555954 0.36506356 -0.35661973
 1 0.98140435 0.26895363 2.31061610
 1 0.27761239 -1.08965086 1.36300001
 1 -1.08708839 -0.11396804 3.44408694
 1 -2.64399080 1.68513812 2.03500841
 1 -1.20694365 3.61568780 3.00001901
 1 -1.76911768 2.43030311 4.20777597
 1 0.22970367 3.19019116 4.38449385
 1 2.08816822 2.25982367 1.84499029
 1 0.87841182 -2.11051730 -1.74905718
 1 -2.11938818 -2.74031730 -0.80565718
 1 -1.25508818 -3.57801730 -2.13025718
 1 -2.95088818 -1.91881730 -2.57835718
 1 -1.03238818 0.16048270 -2.79325718
 1 -2.29168818 1.39578270 -0.97815718
 1 -3.33708818 0.75788270 -2.28525718
 1 -1.75978818 -1.74591730 1.00474282
 8 -4.89430578 -0.83315607 1.54313333
 1 -0.28758818 -1.34151730 -3.73645718
 8 4.45271286 3.55421950 -2.65984466
 7 0.99163732 1.11513834 -4.77508633
 1 0.18718593 0.52158809 -4.79629959
 1 1.44782198 1.36882684 -5.62690526
 1 2.89581391 2.61913405 -4.55767499
 7 0.94501182 -3.40281730 4.21984282
 1 1.82801182 -3.82381730 4.42734282
 1 0.32091182 -3.15841730 4.96194282
 1 -1.21848818 -1.59571730 4.38164282
 1 -2.52428818 -1.89001730 3.25854282
 1 -1.87138818 -3.20661730 4.20364282

