%nprocshared=16
%mem=32GB
#p opt b3lyp/6-31g(d)

title

0 1
15 -2.72654957 0.42677201 1.97674216
 8 -1.70155482 1.35978043 2.51368732
 6 -0.09629357 -0.09775918 -0.52788438
 8 0.28479706 0.65134781 0.63289069
 6 -0.33633173 -1.51367897 -0.02141101
 6 -0.77841709 -1.31792564 1.42784745
 8 -2.20439130 -0.97535991 1.49483820
 6 -0.02898516 -0.08151972 1.90007931
 6 1.27249155 -0.32166639 2.67814587
 8 2.04638846 -1.25921974 1.96683737
 7 1.19453715 2.30902784 -4.77313859
 6 0.03599005 2.16603545 -4.14659218
 7 -0.25283331 1.50757978 -3.05486563
 6 0.82295882 0.86567847 -2.59854969
 6 2.10871637 0.86538429 -3.12424196
 6 2.26582829 1.64192875 -4.33829129
 7 3.00399359 0.07460883 -2.39444287
 6 2.25040245 -0.36979956 -1.40951132
 7 0.92801466 0.01366201 -1.52732938
 6 -0.05428826 -0.56119005 0.09982172
 8 -0.56628826 0.75390995 0.23282172
 6 -1.88458826 -0.47879005 -1.30567828
 6 -1.51458826 0.93750995 -0.75447828
 6 -2.67758826 1.84780995 -0.22787828
 8 -3.44598826 0.97930995 0.76012172
 7 0.13281174 -1.07869005 1.51632172
 6 1.30941174 -1.66669005 1.79542172
 8 2.14641174 -1.89599005 0.98432172
 7 1.49661174 -2.02009005 3.12532172
 6 0.57411174 -1.80329005 4.16872172
 6 -0.68808826 -1.20729005 3.79872172
 6 -0.83138826 -0.87479005 2.50362172
 6 -1.67028826 -0.92729005 4.86742172
 8 -1.18318826 -0.38339005 -2.66957828
 6 -1.33478826 -1.37329005 -0.29627828
 1 -1.08924578 0.24185808 -0.89554328
 1 0.67500958 -2.11385394 -0.02228078
 1 -1.03765637 -2.13073159 -0.57508818
 1 -0.51824711 -2.20781953 2.04589627
 1 -0.69083790 0.51066039 2.52161649
 1 1.89092986 0.58923196 2.74893511
 1 1.10089388 -0.71199724 3.67764341
 1 2.94894105 -1.15368264 2.68085782
 1 2.61983734 -0.96791938 -0.57885616
 1 0.84251174 -0.73949005 -0.57177828
 1 -2.15528826 -1.36929005 0.37162172
 1 -1.29098826 -2.20699005 -0.95297828
 1 -2.98678826 -0.54779005 -1.40107828
 1 -1.06828826 1.53150995 -1.61597828
 1 -2.32758826 2.76680995 0.19912172
 1 -3.37298826 2.12890995 -1.10797828
 1 -1.79568826 -0.37489005 2.18202172
 8 -4.04108400 0.08841488 3.01681753
 1 -0.32348826 0.02950995 -2.55917828
 8 3.52866328 1.70206494 -5.00664217
 7 -1.06106399 2.84744065 -4.84876156
 1 -1.99132155 2.80355826 -4.48463365
 1 -0.87722323 3.35443339 -5.68972454
 1 1.26596343 2.91297935 -5.56695887
 7 0.90911174 -2.03179005 5.39712172
 1 1.79211174 -2.45279005 5.60462172
 1 0.28501174 -1.78739005 6.13922172
 1 -1.25438826 -0.22469005 5.55892172
 1 -2.56018826 -0.51899005 4.43582172
 1 -1.90728826 -1.83559005 5.38092172

