%nprocshared=16
%mem=32GB
#p opt b3lyp/6-31g(d)

title

0 1
15 -2.32403981 0.96157303 -2.10261926
 8 -2.42395643 2.43802419 -1.96284199
 6 -0.52750885 0.72979154 1.56262115
 8 0.51925005 -0.17994247 1.20141492
 6 -0.52651629 1.78652443 0.46613720
 6 -0.01233609 1.04166063 -0.76467779
 8 -1.09388918 0.27958258 -1.40085500
 6 0.96038530 0.00874722 -0.21672365
 6 2.44804137 0.38749092 -0.23495175
 8 2.58110887 1.68316212 0.30115616
 7 -1.81631087 0.21406972 6.41587484
 6 -2.38866181 -0.19514978 5.29329193
 7 -2.02547785 -0.01370216 4.05070438
 6 -0.93886263 0.75645531 3.98975300
 6 -0.21534165 1.30367290 5.04170130
 6 -0.74784759 1.01208735 6.35814975
 7 0.87648272 2.07196760 4.62087276
 6 0.81884364 1.95089023 3.31033601
 7 -0.28544303 1.23851680 2.88289199
 6 1.18518182 -1.02689992 -4.20810589
 8 0.67318182 0.28820008 -4.07510589
 6 -0.64511818 -0.94449992 -5.61360589
 6 -0.27511818 0.47180008 -5.06240589
 6 -1.43811818 1.38210008 -4.53580589
 8 -2.20651818 0.51360008 -3.54780589
 7 1.37228182 -1.54439992 -2.79160589
 6 2.54888182 -2.13239992 -2.51250589
 8 3.38588182 -2.36169992 -3.32360589
 7 2.73608182 -2.48579992 -1.18260589
 6 1.81358182 -2.26899992 -0.13920589
 6 0.55138182 -1.67299992 -0.50920589
 6 0.40808182 -1.34049992 -1.80430589
 6 -0.43081818 -1.39299992 0.55949411
 8 0.05628182 -0.84909992 -6.97750589
 6 -0.09531818 -1.83899992 -4.60420589
 1 -1.51759837 0.23169268 1.47269156
 1 0.24161776 2.63624673 0.73252808
 1 -1.46274874 2.29802773 0.26364827
 1 0.49560064 1.74063835 -1.46825035
 1 0.83885346 -0.91362298 -0.77304912
 1 3.05447690 -0.27044781 0.41046705
 1 2.87091028 0.38947716 -1.23593986
 1 3.73585039 1.64743712 0.27182710
 1 1.56167914 2.35535307 2.62562974
 1 2.08198182 -1.20519992 -4.87970589
 1 -0.91581818 -1.83499992 -3.93630589
 1 -0.05151818 -2.67269992 -5.26090589
 1 -1.74731818 -1.01349992 -5.70900589
 1 0.17118182 1.06580008 -5.92390589
 1 -1.08811818 2.30110008 -4.10880589
 1 -2.13351818 1.66320008 -5.41590589
 1 -0.55621818 -0.84059992 -2.12590589
 8 -3.69073579 0.07216131 -1.58751538
 1 0.91598182 -0.43619992 -6.86710589
 8 -0.12245373 1.54038527 7.53068771
 7 -3.63450706 -0.93390164 5.54428547
 1 -4.17081435 -1.28506945 4.77685496
 1 -3.94535272 -1.08518215 6.48159384
 1 -2.18253892 -0.07310893 7.30098229
 7 2.14858182 -2.49749992 1.08919411
 1 3.03158182 -2.91849992 1.29669411
 1 1.52448182 -2.25309992 1.83129411
 1 -0.01491818 -0.69039992 1.25099411
 1 -1.32071818 -0.98469992 0.12789411
 1 -0.66781818 -2.30129992 1.07299411

