%nprocshared=16
%mem=32GB
#p opt b3lyp/6-31g(d)

title

0 1
15 -2.17462898 -1.67238049 0.56073187
 8 -2.49281522 -1.80650396 -0.88501965
 6 -2.12967286 1.87586456 -0.37439898
 8 -2.64545847 0.97451579 -1.36198477
 6 -3.15739248 1.85887489 0.74919622
 6 -3.77579869 0.46447902 0.66350578
 8 -2.92219060 -0.52501536 1.33245688
 6 -3.74181304 0.11354704 -0.81603552
 6 -5.02822051 0.37072603 -1.61347794
 8 -5.48217952 1.66989581 -1.31354196
 7 1.39772032 4.91497480 -2.32436238
 6 1.47465920 3.83545714 -1.56018923
 7 0.52362898 3.09254263 -1.05772610
 6 -0.67247358 3.59846059 -1.35934826
 6 -0.96028057 4.72670903 -2.11680948
 6 0.20338281 5.44299820 -2.60099806
 7 -2.33224906 4.97869433 -2.23368436
 6 -2.86202499 3.97255054 -1.56847710
 7 -1.91487379 3.16497005 -0.96818409
 6 2.68414828 -2.92038446 0.15574711
 8 2.17214828 -1.60528446 0.28874711
 6 0.85384828 -2.83798446 -1.24975289
 6 1.22384828 -1.42168446 -0.69855289
 6 0.06084828 -0.51138446 -0.17195289
 8 -0.70755172 -1.37988446 0.81604711
 7 2.87124828 -3.43788446 1.57224711
 6 4.04784828 -4.02588446 1.85134711
 8 4.88484828 -4.25518446 1.04024711
 7 4.23504828 -4.37928446 3.18124711
 6 3.31254828 -4.16248446 4.22464711
 6 2.05034828 -3.56648446 3.85464711
 6 1.90704828 -3.23398446 2.55954711
 6 1.06814828 -3.28648446 4.92334711
 8 1.55524828 -2.74258446 -2.61365289
 6 1.40364828 -3.73248446 -0.24035289
 1 -1.20610213 1.45782744 0.08246985
 1 -3.99874168 2.65118697 0.53149205
 1 -2.80554151 2.08092766 1.75222266
 1 -4.81969980 0.46854459 1.05316955
 1 -3.48277985 -0.93392821 -0.91963189
 1 -4.85445664 0.35523059 -2.70287175
 1 -5.82229752 -0.33041692 -1.37132193
 1 -6.33193897 1.62402925 -2.09544322
 1 -3.93089098 3.78012389 -1.49981169
 1 3.58094828 -3.09868446 -0.51585289
 1 0.58314828 -3.72848446 0.42754711
 1 1.44744828 -4.56618446 -0.89705289
 1 -0.24835172 -2.90698446 -1.34515289
 1 1.67014828 -0.82768446 -1.56005289
 1 0.41084828 0.40761554 0.25504711
 1 -0.63455172 -0.23028446 -1.05205289
 1 0.94274828 -2.73408446 2.23794711
 8 -2.40396056 -3.07900986 1.50574189
 1 2.41494828 -2.32968446 -2.50325289
 8 0.05491794 6.64240189 -3.36549163
 7 2.86476552 3.48528034 -1.23482314
 1 3.05824624 2.69640544 -0.65161173
 1 3.61620366 4.03540592 -1.59643116
 1 2.22929404 5.33165773 -2.69160926
 7 3.64754828 -4.39098446 5.45304711
 1 4.53054828 -4.81198446 5.66054711
 1 3.02344828 -4.14658446 6.19514711
 1 1.48404828 -2.58388446 5.61484711
 1 0.17824828 -2.87818446 4.49174711
 1 0.83114828 -4.19478446 5.43684711

