%nprocshared=16
%mem=32GB
#p opt b3lyp/6-31g(d)

title

0 1
15 -0.90262652 2.68324275 0.51629180
 8 0.57568910 2.53924248 0.45905651
 6 -1.33429977 -1.18168971 -0.74513148
 8 -2.36266331 -0.94864723 -1.71567244
 6 -0.28846542 -0.10797711 -1.01408173
 6 -1.09271637 1.05453842 -1.59360477
 8 -1.72332054 1.83571789 -0.52246588
 6 -2.23185428 0.39743458 -2.35775798
 6 -2.03196257 0.21689075 -3.86916357
 8 -0.75953009 -0.34813409 -4.08257637
 7 -1.67900473 -5.81875740 1.21951419
 6 -2.02100396 -4.62613113 1.68418362
 7 -1.88762168 -3.44383953 1.14266225
 6 -1.25172012 -3.53465180 -0.02565816
 6 -0.79080719 -4.67867738 -0.66463365
 6 -1.01328017 -5.91075060 0.06620324
 7 -0.15846945 -4.41336584 -1.88496665
 6 -0.27586690 -3.10508506 -1.98550419
 7 -0.85378822 -2.52850030 -0.87051974
 6 2.02593245 2.56577062 -0.39609460
 8 1.51393245 3.88087062 -0.26309460
 6 0.19563245 2.64817062 -1.80159460
 6 0.56563245 4.06447062 -1.25039460
 6 -0.59736755 4.97477062 -0.72379460
 8 -1.36576755 4.10627062 0.26420540
 7 2.21303245 2.04827062 1.02040540
 6 3.38963245 1.46027062 1.29950540
 8 4.22663245 1.23097062 0.48840540
 7 3.57683245 1.10687062 2.62940540
 6 2.65433245 1.32367062 3.67280540
 6 1.39213245 1.91967062 3.30280540
 6 1.24883245 2.25217062 2.00770540
 6 0.40993245 2.19967062 4.37150540
 8 0.89703245 2.74357062 -3.16549460
 6 0.74543245 1.75367062 -0.79219460
 1 -1.71194572 -0.95727451 0.27638132
 1 0.46514571 -0.48280122 -1.83542159
 1 0.32966547 0.20839462 -0.17922144
 1 -0.46094070 1.67712298 -2.26801701
 1 -3.13504049 0.97633520 -2.20231172
 1 -2.75510134 -0.49378689 -4.30415836
 1 -2.08310825 1.15412628 -4.41667880
 1 -0.93180852 -0.46910583 -5.21890838
 1 0.03571346 -2.52813826 -2.85398996
 1 2.92273245 2.38747062 -1.06769460
 1 -0.07506755 1.75767062 -0.12429460
 1 0.78923245 0.91997062 -1.44889460
 1 -0.90656755 2.57917062 -1.89699460
 1 1.01193245 4.65847062 -2.11189460
 1 -0.24736755 5.89377062 -0.29679460
 1 -1.29276755 5.25587062 -1.60389460
 1 0.28453245 2.75207062 1.68610540
 8 -1.62239798 2.36180409 2.03380600
 1 1.75673245 3.15647062 -3.05509460
 8 -0.55916827 -7.16130276 -0.45816604
 7 -2.60628941 -4.70336552 3.03042217
 1 -2.89382989 -3.86825741 3.49925994
 1 -2.71684442 -5.59020377 3.47691217
 1 -1.91810361 -6.64492818 1.72969391
 7 2.98933245 1.09517062 4.90120540
 1 3.87233245 0.67417062 5.10870540
 1 2.36523245 1.33957062 5.64330540
 1 0.82583245 2.90227062 5.06300540
 1 -0.47996755 2.60797062 3.93990540
 1 0.17293245 1.29137062 4.88500540

