%nprocshared=16
%mem=32GB
#p opt b3lyp/6-31g(d)

title

0 1
15 -2.13469085 3.12401852 0.78241357
 8 -1.10969610 4.05702694 1.31935873
 6 -0.29051669 -1.01243688 0.01517683
 8 -0.06862746 -0.44533775 -1.28211028
 6 0.09581223 0.08613104 0.99643160
 6 -0.18655836 1.37932087 0.23351887
 8 -1.61253257 1.72188660 0.30050962
 6 0.09414544 1.04170510 -1.22269943
 6 1.48189860 1.41805252 -1.76066170
 8 2.44951805 0.96802383 -0.84138521
 7 -0.59815454 -6.04597324 -0.20825467
 6 -1.51923725 -5.10100697 -0.09042431
 7 -1.38565307 -3.80299115 -0.01193962
 6 -0.09561100 -3.46656260 0.00211515
 6 1.00994729 -4.30336163 -0.08174895
 6 0.69441959 -5.71605355 -0.16153014
 7 2.22836225 -3.61599821 -0.03224763
 6 1.84087848 -2.35942055 0.04748613
 7 0.46912754 -2.22349730 0.14473624
 6 0.53757046 2.13605646 -1.09450687
 8 0.02557046 3.45115646 -0.96150687
 6 -1.29272954 2.21845646 -2.50000687
 6 -0.92272954 3.63475646 -1.94880687
 6 -2.08572954 4.54505646 -1.42220687
 8 -2.85412954 3.67655646 -0.43420687
 7 0.72467046 1.61855646 0.32199313
 6 1.90127046 1.03055646 0.60109313
 8 2.73827046 0.80125646 -0.21000687
 7 2.08847046 0.67715646 1.93099313
 6 1.16597046 0.89395646 2.97439313
 6 -0.09622954 1.48995646 2.60439313
 6 -0.23952954 1.82245646 1.30929313
 6 -1.07842954 1.76995646 3.67309313
 8 -0.59132954 2.31385646 -3.86390687
 6 -0.74292954 1.32395646 -1.49060687
 1 -1.37800615 -1.17130872 0.18427288
 1 1.24904082 0.03258693 1.22052722
 1 -0.38694966 0.08038900 1.96909628
 1 0.47306680 2.20318422 0.59090901
 1 -0.65203573 1.52559906 -1.84245349
 1 1.71181126 0.91186192 -2.71361716
 1 1.60850972 2.48962788 -1.88909502
 1 3.33230460 1.26472547 -1.52565161
 1 2.51860474 -1.50820550 0.02911489
 1 1.43437046 1.95775646 -1.76610687
 1 -1.56342954 1.32795646 -0.82270687
 1 -0.69912954 0.49025646 -2.14730687
 1 -2.39492954 2.14945646 -2.59540687
 1 -0.47642954 4.22875646 -2.81030687
 1 -1.73572954 5.46405646 -0.99520687
 1 -2.78112954 4.82615646 -2.30230687
 1 -1.20382954 2.32235646 0.98769313
 8 -3.44922528 2.78566139 1.82248895
 1 0.26837046 2.72675646 -3.75350687
 8 1.73672194 -6.69352644 -0.21822255
 7 -2.87706679 -5.65830897 -0.00920936
 1 -3.66241329 -5.04833008 0.09591232
 1 -3.01524898 -6.64647577 -0.05910781
 1 -0.86962187 -7.00051545 -0.33139866
 7 1.50097046 0.66545646 4.20279313
 1 2.38397046 0.24445646 4.41029313
 1 0.87687046 0.90985646 4.94489313
 1 -0.66252954 2.47255646 4.36459313
 1 -1.96832954 2.17825646 3.24149313
 1 -1.31542954 0.86165646 4.18659313

