%nprocshared=16
%mem=32GB
#p opt b3lyp/6-31g(d)

title

0 1
15 -2.95851100 -0.22740705 0.38440769
 8 -1.93351625 0.70560137 0.92135285
 6 0.00096582 0.20166919 0.01122699
 8 0.05569891 -0.43188369 1.29551868
 6 -0.24135472 -0.93149427 -0.97679315
 6 -1.01037851 -1.97210470 -0.16448702
 8 -2.43635272 -1.62953896 -0.09749627
 6 -0.47928097 -1.82951022 1.25359371
 6 0.62865717 -2.80540448 1.67431106
 8 1.60938406 -2.82343244 0.66350333
 7 2.02963949 4.82175634 0.15380605
 6 0.77389486 4.39973534 0.13824073
 7 0.29702234 3.18418863 0.07588335
 6 1.28745802 2.29991458 -0.04530583
 6 2.65477723 2.54264739 -0.07761489
 6 3.02237540 3.94283028 -0.00027991
 7 3.41946176 1.37887849 -0.22028010
 6 2.49910816 0.43648623 -0.23857306
 7 1.21221608 0.93925616 -0.21092295
 6 -0.28624968 -1.21536911 -1.49251275
 8 -0.79824968 0.09973089 -1.35951275
 6 -2.11654968 -1.13296911 -2.89801275
 6 -1.74654968 0.28333089 -2.34681275
 6 -2.90954968 1.19363089 -1.82021275
 8 -3.67794968 0.32513089 -0.83221275
 7 -0.09914968 -1.73286911 -0.07601275
 6 1.07745032 -2.32086911 0.20308725
 8 1.91445032 -2.55016911 -0.60801275
 7 1.26465032 -2.67426911 1.53298725
 6 0.34215032 -2.45746911 2.57638725
 6 -0.92004968 -1.86146911 2.20638725
 6 -1.06334968 -1.52896911 0.91128725
 6 -1.90224968 -1.58146911 3.27508725
 8 -1.41514968 -1.03756911 -4.26191275
 6 -1.56674968 -2.02746911 -1.88861275
 1 -0.90654129 0.83980458 -0.06414625
 1 0.78589290 -1.40177200 -1.30332522
 1 -0.75315432 -0.68682596 -1.90273439
 1 -0.83047451 -2.99765048 -0.56131735
 1 -1.30550886 -1.93566000 1.94721788
 1 1.14650946 -2.47885154 2.59213732
 1 0.26658889 -3.82041532 1.81380591
 1 2.31852171 -3.50256644 1.27298283
 1 2.71597792 -0.62964011 -0.26222899
 1 0.61055032 -1.39366911 -2.16411275
 1 -2.38724968 -2.02346911 -1.22071275
 1 -1.52294968 -2.86116911 -2.54531275
 1 -3.21874968 -1.20196911 -2.99341275
 1 -1.30024968 0.87733089 -3.20831275
 1 -2.55954968 2.11263089 -1.39321275
 1 -3.60494968 1.47473089 -2.70031275
 1 -2.02764968 -1.02906911 0.58968725
 8 -4.27304543 -0.56576418 1.42448306
 1 -0.55544968 -0.62466911 -4.15151275
 8 4.39494995 4.34017060 -0.05703584
 7 -0.18498651 5.51358722 0.16586239
 1 -1.16736395 5.32827355 0.14378650
 1 0.14481797 6.45572007 0.20675863
 1 2.23247924 5.79278514 0.28017410
 7 0.67715032 -2.68596911 3.80478725
 1 1.56015032 -3.10696911 4.01228725
 1 0.05305032 -2.44156911 4.54688725
 1 -1.48634968 -0.87886911 3.96658725
 1 -2.79214968 -1.17316911 2.84348725
 1 -2.13924968 -2.48976911 3.78858725

