%nprocshared=16GB
%mem=32GB
#p opt freq=noraman b3lyp/6-31g(d)

title

0 1
15 0.65372826 -0.11116329 -0.72969871
 8 0.34351915 -0.25343071 -2.17640509
 6 -3.14785398 1.22556157 -0.03950123
 8 -2.80812203 2.32458197 0.81520719
 6 -2.20108620 1.34258939 -1.22647121
 6 -0.95997858 2.01701298 -0.64430834
 8 -0.10414189 1.03531930 0.03323322
 6 -1.49054890 2.93310888 0.44776042
 6 -1.70455854 4.40485637 0.06689453
 8 -2.41113054 4.44829223 -1.15078845
 7 -7.70063169 -0.64009179 1.08859610
 6 -6.47337345 -1.06299981 1.35359539
 7 -5.31802688 -0.55324868 1.01569341
 6 -5.48929484 0.51891776 0.24192559
 6 -6.68306468 1.09807445 -0.16919002
 6 -7.87631540 0.41317689 0.28763517
 7 -6.50050509 2.21962744 -0.98665240
 6 -5.18817605 2.32546695 -1.03224905
 7 -4.54121212 1.29471350 -0.37755956
 6 5.50953836 -1.34973570 -1.12870034
 8 4.99753836 -0.03463570 -0.99570034
 6 3.67923836 -1.26733570 -2.53420034
 6 4.04923836 0.14896430 -1.98300034
 6 2.88623836 1.05926430 -1.45640034
 8 2.11783836 0.19076430 -0.46840034
 7 5.69663836 -1.86723570 0.28779966
 6 6.87323836 -2.45523570 0.56689966
 8 7.71023836 -2.68453570 -0.24420034
 7 7.06043836 -2.80863570 1.89679966
 6 6.13793836 -2.59183570 2.94019966
 6 4.87573836 -1.99583570 2.57019966
 6 4.73243836 -1.66333570 1.27509966
 6 3.89353836 -1.71583570 3.63889966
 8 4.38063836 -1.17193570 -3.89810034
 6 4.22903836 -2.16183570 -1.52480034
 1 -2.87413045 0.26291664 0.44511945
 1 -2.66504263 2.05714453 -2.03713600
 1 -1.94975768 0.42945335 -1.75768222
 1 -0.41800672 2.59512031 -1.42766159
 1 -0.81228455 2.89703804 1.29256286
 1 -2.33262943 4.93893497 0.80003835
 1 -0.77194081 4.94732409 -0.06253572
 1 -2.52098996 5.59834644 -1.12128159
 1 -4.65700069 3.13952145 -1.52151940
 1 6.40633836 -1.52803570 -1.80030034
 1 3.40853836 -2.15783570 -0.85690034
 1 4.27283836 -2.99553570 -2.18150034
 1 2.57703836 -1.33633570 -2.62960034
 1 4.49553836 0.74296430 -2.84450034
 1 3.23623836 1.97826430 -1.02940034
 1 2.19083836 1.34036430 -2.33650034
 1 3.76813836 -1.16343570 0.95349966
 8 0.42763540 -1.51491072 0.22036353
 1 5.24033836 -0.75903570 -3.78770034
 8 -9.17424593 0.88049111 -0.08926695
 7 -6.47335931 -2.31705192 2.12056069
 1 -5.60743482 -2.74882011 2.37284017
 1 -7.33847948 -2.73791786 2.38981291
 1 -8.49047108 -1.10711385 1.48615604
 7 6.47293836 -2.82033570 4.16859966
 1 7.35593836 -3.24133570 4.37609966
 1 5.84883836 -2.57593570 4.91069966
 1 4.30943836 -1.01323570 4.33039966
 1 3.00363836 -1.30753570 3.20729966
 1 3.65653836 -2.62413570 4.15239966

