%nprocshared=16
%mem=32GB
#p opt b3lyp/6-31g(d)

title

0 1
15 0.23005198 2.02979993 1.65968032
 8 1.70836761 1.88579966 1.60244503
 6 -1.78451513 -1.00426989 -1.13957557
 8 -1.67361474 0.08519794 -2.06399488
 6 -0.44329070 -1.04792005 -0.41973243
 6 0.03996213 0.40109560 -0.45021625
 8 -0.59064204 1.18227506 0.62092263
 6 -0.50292277 0.96541409 -1.75412245
 6 0.45534751 0.96927643 -2.95354013
 8 1.04828910 -0.30469683 -3.04995021
 7 -5.60197681 -4.07154221 -2.36427054
 6 -5.47418336 -3.13385707 -1.43709527
 7 -4.44884412 -2.37853212 -1.14211506
 6 -3.39776474 -2.70345802 -1.89527211
 6 -3.32233751 -3.66768526 -2.89231849
 6 -4.54311457 -4.42214815 -3.09752651
 7 -2.05692432 -3.75222129 -3.48480223
 6 -1.38721860 -2.80738580 -2.85689404
 7 -2.11959261 -2.20457709 -1.85196454
 6 3.15861095 1.91232780 0.74729391
 8 2.64661095 3.22742780 0.88029391
 6 1.32831095 1.99472780 -0.65820609
 6 1.69831095 3.41102780 -0.10700609
 6 0.53531095 4.32132780 0.41959391
 8 -0.23308905 3.45282780 1.40759391
 7 3.34571095 1.39482780 2.16379391
 6 4.52231095 0.80682780 2.44289391
 8 5.35931095 0.57752780 1.63179391
 7 4.70951095 0.45342780 3.77279391
 6 3.78701095 0.67022780 4.81619391
 6 2.52481095 1.26622780 4.44619391
 6 2.38151095 1.59872780 3.15109391
 6 1.54261095 1.54622780 5.51489391
 8 2.02971095 2.09012780 -2.02210609
 6 1.87811095 1.10022780 0.35119391
 1 -2.52283281 -0.76021296 -0.34472321
 1 0.31623240 -1.70460913 -1.03202821
 1 -0.42899681 -1.45466819 0.58700498
 1 1.15284291 0.44908844 -0.42234222
 1 -0.83419885 1.98308597 -1.58197451
 1 -0.07215274 1.13027439 -3.90906930
 1 1.24826251 1.70613285 -2.85800128
 1 1.58535640 -0.05163541 -4.04145567
 1 -0.36775123 -2.51523661 -3.10092808
 1 4.05541095 1.73402780 0.07569391
 1 1.05761095 1.10422780 1.01909391
 1 1.92191095 0.26652780 -0.30550609
 1 0.22611095 1.92572780 -0.75360609
 1 2.14461095 4.00502780 -0.96850609
 1 0.88531095 5.24032780 0.84659391
 1 -0.16008905 4.60242780 -0.46050609
 1 1.41721095 2.09862780 2.82949391
 8 -0.48971947 1.70836127 3.17719451
 1 2.88941095 2.50302780 -1.91170609
 8 -4.59762437 -5.47003098 -4.06913946
 7 -6.69213298 -2.98616005 -0.62736273
 1 -6.71970727 -2.31922442 0.11717099
 1 -7.49234530 -3.55205933 -0.82095005
 1 -6.48624907 -4.51393437 -2.51380826
 7 4.12201095 0.44172780 6.04459391
 1 5.00501095 0.02072780 6.25209391
 1 3.49791095 0.68612780 6.78669391
 1 1.95851095 2.24882780 6.20639391
 1 0.65271095 1.95452780 5.08329391
 1 1.30561095 0.63792780 6.02839391

