%nprocshared=16GB
%mem=32GB
#p opt freq=noraman b3lyp/6-31g(d)

title

0 1
15 -3.71470305 -0.62868461 -1.31396083
 8 -4.48621016 0.31420061 -2.16553190
 6 -0.93477472 1.78259205 1.12187320
 8 -1.03767441 2.24244157 -0.23154476
 6 -2.37227919 1.68449212 1.61474208
 6 -3.17765042 1.39218158 0.34981495
 8 -3.11941236 -0.03592652 0.01461791
 6 -2.43155974 2.11321595 -0.76230415
 6 -2.95309128 3.50382616 -1.15102991
 8 -3.14337027 4.25029923 0.02814538
 7 3.72517249 2.45617150 2.94182752
 6 3.08967166 1.38353260 2.49369466
 7 1.86576010 1.25547636 2.05268246
 6 1.20901555 2.41113424 2.15627635
 6 1.68552282 3.62957951 2.62302775
 6 3.06186586 3.60653154 3.07774727
 7 0.72212070 4.64487327 2.60091869
 6 -0.32336831 4.03118966 2.08532803
 7 -0.10613048 2.68325599 1.87198355
 6 0.88777656 -2.74717851 -2.68347961
 8 0.37577656 -1.43207851 -2.55047961
 6 -0.94252344 -2.66477851 -4.08897961
 6 -0.57252344 -1.24847851 -3.53777961
 6 -1.73552344 -0.33817851 -3.01117961
 8 -2.50392344 -1.20667851 -2.02317961
 7 1.07487656 -3.26467851 -1.26697961
 6 2.25147656 -3.85267851 -0.98787961
 8 3.08847656 -4.08197851 -1.79897961
 7 2.43867656 -4.20607851 0.34202039
 6 1.51617656 -3.98927851 1.38542039
 6 0.25397656 -3.39327851 1.01542039
 6 0.11067656 -3.06077851 -0.27967961
 6 -0.72822344 -3.11327851 2.08412039
 8 -0.24112344 -2.56937851 -5.45287961
 6 -0.39272344 -3.55927851 -3.07957961
 1 -0.55729540 0.73691067 1.14482680
 1 -2.71856743 2.72383613 2.04237566
 1 -2.58367304 0.96520046 2.40029968
 1 -4.22099958 1.77105492 0.44708479
 1 -2.43896254 1.48881754 -1.64836658
 1 -2.22262273 4.07060311 -1.75302030
 1 -3.89881349 3.46596096 -1.68486039
 1 -3.40394939 5.21738963 -0.54839527
 1 -1.26165734 4.52418582 1.83878000
 1 1.78457656 -2.92547851 -3.35507961
 1 -1.21322344 -3.55527851 -2.41167961
 1 -0.34892344 -4.39297851 -3.73627961
 1 -2.04472344 -2.73377851 -4.18437961
 1 -0.12622344 -0.65447851 -4.39927961
 1 -1.38552344 0.58082149 -2.58417961
 1 -2.43092344 -0.05707851 -3.89127961
 1 -0.85362344 -2.56087851 -0.60127961
 8 -4.53879760 -2.05223244 -0.84638963
 1 0.61857656 -2.15647851 -5.34247961
 8 3.67153239 4.78305243 3.61548958
 7 3.92808787 0.17759666 2.55418632
 1 3.55941245 -0.70308651 2.25691621
 1 4.86624859 0.23791111 2.89223133
 1 4.69578477 2.40427785 3.17683521
 7 1.85117656 -4.21777851 2.61382039
 1 2.73417656 -4.63877851 2.82132039
 1 1.22707656 -3.97337851 3.35592039
 1 -0.31232344 -2.41067851 2.77562039
 1 -1.61812344 -2.70497851 1.65252039
 1 -0.96522344 -4.02157851 2.59762039

