%nprocshared=16GB
%mem=32GB
#p opt freq=noraman b3lyp/6-31g(d)

title

0 1
15 -1.54346283 -2.16913478 -0.97944665
 8 -1.86164907 -2.30325826 -2.42519817
 6 -2.40848763 2.00305436 0.16951542
 8 -1.77562718 1.89412641 -1.11166078
 6 -3.59304640 1.04820033 0.10597999
 6 -3.14463254 -0.03227527 -0.87667274
 8 -2.29102444 -1.02176965 -0.20772164
 6 -2.24702371 0.69151948 -1.86852469
 6 -2.89972997 1.14696489 -3.18132461
 8 -4.10603744 1.80437015 -2.87064293
 7 -0.96342792 6.19504364 2.58199947
 6 -0.61924576 4.92321887 2.72070415
 7 -1.04351102 3.86390076 2.08297868
 6 -2.00642875 4.19234755 1.22129290
 6 -2.52349777 5.45330342 0.95267632
 6 -1.94949433 6.52349606 1.74440164
 7 -3.53747690 5.44076654 -0.01228120
 6 -3.59788696 4.16679185 -0.34217160
 7 -2.75814635 3.37327491 0.41598401
 6 3.31531443 -3.41713875 -1.38443141
 8 2.80331443 -2.10203875 -1.25143141
 6 1.48501443 -3.33473875 -2.78993141
 6 1.85501443 -1.91843875 -2.23873141
 6 0.69201443 -1.00813875 -1.71213141
 8 -0.07638557 -1.87663875 -0.72413141
 7 3.50241443 -3.93463875 0.03206859
 6 4.67901443 -4.52263875 0.31116859
 8 5.51601443 -4.75193875 -0.49993141
 7 4.86621443 -4.87603875 1.64106859
 6 3.94371443 -4.65923875 2.68446859
 6 2.68151443 -4.06323875 2.31446859
 6 2.53821443 -3.73073875 1.01936859
 6 1.69931443 -3.78323875 3.38316859
 8 2.18641443 -3.23933875 -4.15383141
 6 2.03481443 -4.22923875 -1.78053141
 1 -1.74985724 1.58235217 0.96051651
 1 -4.52562184 1.60023157 -0.35073281
 1 -3.94138240 0.62046772 1.04132775
 1 -4.02127595 -0.49276042 -1.38758726
 1 -1.40836780 0.04939017 -2.11216585
 1 -2.28275049 1.88606996 -3.72009440
 1 -3.12619628 0.32025259 -3.84920113
 1 -4.29465201 2.11599357 -3.96740172
 1 -4.23034491 3.76940002 -1.13355907
 1 4.21211443 -3.59543875 -2.05603141
 1 1.21431443 -4.22523875 -1.11263141
 1 2.07861443 -5.06293875 -2.43723141
 1 0.38281443 -3.40373875 -2.88533141
 1 2.30131443 -1.32443875 -3.10023141
 1 1.04201443 -0.08913875 -1.28513141
 1 -0.00338557 -0.72703875 -2.59223141
 1 1.57391443 -3.23083875 0.69776859
 8 -1.77279441 -3.57576415 -0.03443663
 1 3.04611443 -2.82643875 -4.04343141
 8 -2.41218661 7.86849584 1.59623646
 7 0.37077845 4.73095822 3.79017615
 1 0.70294378 3.81253734 4.00479959
 1 0.71180471 5.51788130 4.30253439
 1 -0.48743623 6.90456043 3.10164128
 7 4.27871443 -4.88773875 3.91286859
 1 5.16171443 -5.30873875 4.12036859
 1 3.65461443 -4.64333875 4.65496859
 1 2.11521443 -3.08063875 4.07466859
 1 0.80941443 -3.37493875 2.95156859
 1 1.46231443 -4.69153875 3.89666859

