%nprocshared=16GB
%mem=32GB
#p opt freq=noraman b3lyp/6-31g(d)

title

0 1
15 -2.00053632 0.31516880 1.60640653
 8 -1.19381119 -0.36239742 0.55782290
 6 -1.92600469 0.29407442 -1.40621248
 8 -2.55766232 -0.97837948 -1.21737441
 6 -3.02551626 1.31932971 -1.16354325
 6 -3.96527727 0.62724305 -0.17765573
 8 -3.45609029 0.74239245 1.19446333
 6 -3.88224124 -0.84962957 -0.53163740
 6 -4.98115827 -1.39892677 -1.45226413
 8 -5.11825472 -0.52441037 -2.54784988
 7 2.42181622 -0.16939697 -3.92865149
 6 2.15139164 0.01496568 -2.64486041
 7 1.00066913 0.15412406 -2.04044142
 6 0.00498666 0.15623784 -2.92712186
 6 0.08402906 0.00703641 -4.30589529
 6 1.43107144 -0.13503619 -4.82253192
 7 -1.16251888 0.06335522 -4.94024557
 6 -1.98936919 0.21321328 -3.92567685
 7 -1.33769212 0.34723672 -2.71448402
 6 2.02128062 0.06767571 1.42998797
 8 1.50928062 1.38277571 1.56298797
 6 0.19098062 0.15007571 0.02448797
 6 0.56098062 1.56637571 0.57568797
 6 -0.60201938 2.47667571 1.10228797
 8 -1.37041938 1.60817571 2.09028797
 7 2.20838062 -0.44982429 2.84648797
 6 3.38498062 -1.03782429 3.12558797
 8 4.22198062 -1.26712429 2.31448797
 7 3.57218062 -1.39122429 4.45548797
 6 2.64968062 -1.17442429 5.49888797
 6 1.38748062 -0.57842429 5.12888797
 6 1.24418062 -0.24592429 3.83378797
 6 0.40528062 -0.29842429 6.19758797
 8 0.89238062 0.24547571 -1.33941203
 6 0.74078062 -0.74442429 1.03388797
 1 -1.18514625 0.47909869 -0.59790447
 1 -3.61510067 1.51504839 -2.16209541
 1 -2.72479911 2.30094520 -0.80975119
 1 -5.00611498 1.01002517 -0.28590829
 1 -3.88770766 -1.42827655 0.38497190
 1 -4.71541581 -2.38042330 -1.88035100
 1 -5.94573298 -1.47735095 -0.95805312
 1 -5.87470858 -1.21257815 -3.08615009
 1 -3.07374043 0.22172258 -4.01669365
 1 2.91808062 -0.11062429 0.75838797
 1 -0.07971938 -0.74042429 1.70178797
 1 0.78458062 -1.57812429 0.37718797
 1 -0.91121938 0.08107571 -0.07091203
 1 1.00728062 2.16037571 -0.28581203
 1 -0.25201938 3.39567571 1.52928797
 1 -1.29741938 2.75777571 0.22218797
 1 0.27988062 0.25397571 3.51218797
 8 -2.17770635 -0.54040599 3.07638805
 1 1.75208062 0.65837571 -1.22901203
 8 1.66293645 -0.26261789 -6.22788703
 7 3.37101496 0.09863307 -1.82852643
 1 3.30324663 0.25086533 -0.84256155
 1 4.26759457 0.00333440 -2.25878330
 1 3.36238101 -0.33324577 -4.22614303
 7 2.98468062 -1.40292429 6.72728797
 1 3.86768062 -1.82392429 6.93478797
 1 2.36058062 -1.15852429 7.46938797
 1 0.82118062 0.40417571 6.88908797
 1 -0.48461938 0.10987571 5.76598797
 1 0.16828062 -1.20672429 6.71108797

