%nprocshared=16GB
%mem=32GB
#p opt freq=noraman b3lyp/6-31g(d)

title

0 1
15 -2.31463950 2.10248480 2.17574510
 8 -1.28964475 3.03549322 2.71269026
 6 -0.24203482 -0.70481221 -0.52590946
 8 0.22263388 0.64462077 -0.65592379
 6 -0.16774826 -1.00486631 0.96520137
 6 -0.36650701 0.35778714 1.62685039
 8 -1.79248122 0.70035288 1.69384114
 6 0.25772804 1.35408794 0.66193274
 6 1.69911226 1.79006211 0.96065949
 8 2.46645546 0.63650839 1.21439310
 7 -0.11935987 -3.12483695 -4.95416895
 6 -1.11057600 -2.58433571 -4.26092470
 7 -1.09417101 -1.98601011 -3.09877712
 6 0.13142431 -2.01756012 -2.57483920
 6 1.28630140 -2.55762022 -3.12630900
 6 1.10185039 -3.18751316 -4.41891641
 7 2.40844383 -2.42282952 -2.30042663
 6 1.92128761 -1.76775295 -1.26648173
 7 0.55647039 -1.56771472 -1.34949979
 6 0.35762182 1.11452274 0.29882466
 8 -0.15437818 2.42962274 0.43182466
 6 -1.47267818 1.19692274 -1.10667534
 6 -1.10267818 2.61322274 -0.55547534
 6 -2.26567818 3.52352274 -0.02887534
 8 -3.03407818 2.65502274 0.95912466
 7 0.54472182 0.59702274 1.71532466
 6 1.72132182 0.00902274 1.99442466
 8 2.55832182 -0.22027726 1.18332466
 7 1.90852182 -0.34437726 3.32432466
 6 0.98602182 -0.12757726 4.36772466
 6 -0.27617818 0.46842274 3.99772466
 6 -0.41947818 0.80092274 2.70262466
 6 -1.25837818 0.74842274 5.06642466
 8 -0.77127818 1.29232274 -2.47057534
 6 -0.92287818 0.30242274 -0.09727534
 1 -1.32497821 -0.76369856 -0.77133372
 1 0.90658355 -1.39667448 1.23964544
 1 -0.85455404 -1.74712411 1.36082716
 1 0.13352354 0.39259781 2.62200946
 1 -0.36410133 2.24128993 0.62678081
 1 2.17358076 2.28458869 0.09605787
 1 1.77185430 2.44302436 1.82619294
 1 3.45583249 1.22996331 1.28154060
 1 2.52115076 -1.40720208 -0.43318422
 1 1.25442182 0.93622274 -0.37277534
 1 -1.74337818 0.30642274 0.57062466
 1 -0.87907818 -0.53127726 -0.75397534
 1 -2.57487818 1.12792274 -1.20207534
 1 -0.65637818 3.20722274 -1.41697534
 1 -1.91567818 4.44252274 0.39812466
 1 -2.96107818 3.80462274 -0.90897534
 1 -1.38377818 1.30082274 2.38102466
 8 -3.62917393 1.76412767 3.21582048
 1 0.08842182 1.70522274 -2.36017534
 8 2.19954927 -3.81478358 -5.08723553
 7 -2.40710413 -2.73850745 -4.93629744
 1 -3.23884622 -2.38474355 -4.50857074
 1 -2.45725670 -3.19666453 -5.82265776
 1 -0.28508713 -3.48367094 -5.87274525
 7 1.32102182 -0.35607726 5.59612466
 1 2.20402182 -0.77707726 5.80362466
 1 0.69692182 -0.11167726 6.33822466
 1 -0.84247818 1.45102274 5.75792466
 1 -2.14827818 1.15672274 4.63482466
 1 -1.49537818 -0.15987726 5.57992466

