%nprocshared=16GB
%mem=32GB
#p opt freq=noraman b3lyp/6-31g(d)

title

0 1
15 0.24218906 -1.57377517 0.93266340
 8 1.04891419 -2.25134139 -0.11592023
 6 -2.79897415 0.86958339 -1.13055480
 8 -1.51444942 0.92105843 -1.76390830
 6 -3.10116454 -0.61462478 -0.97317141
 6 -1.72255189 -1.26170092 -0.85139886
 8 -1.21336491 -1.14655151 0.52072020
 6 -0.81011180 -0.39889276 -1.70951652
 6 -0.54694753 -0.88834776 -3.14062727
 8 -1.78245816 -1.22548981 -3.72691323
 7 -5.22999431 5.27397548 -1.54591278
 6 -4.57382830 4.70912785 -0.54310078
 7 -3.97811214 3.54736973 -0.47760300
 6 -4.15294653 2.86860702 -1.61175660
 6 -4.82761878 3.27156550 -2.75716777
 6 -5.43518216 4.58495596 -2.67060302
 7 -4.82411413 2.30486178 -3.76955381
 6 -4.11281832 1.33512163 -3.23182629
 7 -3.75285384 1.59279903 -1.92275743
 6 4.26400600 -1.82126825 0.75624484
 8 3.75200600 -0.50616825 0.88924484
 6 2.43370600 -1.73886825 -0.64925516
 6 2.80370600 -0.32256825 -0.09805516
 6 1.64070600 0.58773175 0.42854484
 8 0.87230600 -0.28076825 1.41654484
 7 4.45110600 -2.33876825 2.17274484
 6 5.62770600 -2.92676825 2.45184484
 8 6.46470600 -3.15606825 1.64074484
 7 5.81490600 -3.28016825 3.78174484
 6 4.89240600 -3.06336825 4.82514484
 6 3.63020600 -2.46736825 4.45514484
 6 3.48690600 -2.13486825 3.16004484
 6 2.64800600 -2.18736825 5.52384484
 8 3.13510600 -1.64346825 -2.01315516
 6 2.98350600 -2.63336825 0.36014484
 1 -2.72997956 1.25476831 -0.08971890
 1 -3.61657355 -1.02182602 -1.94865216
 1 -3.75567758 -0.90806094 -0.15789447
 1 -1.74415258 -2.31389665 -1.21746096
 1 0.14436017 -0.29408733 -1.20649179
 1 -0.11471263 -0.09920382 -3.77909237
 1 0.09544623 -1.76406989 -3.17584483
 1 -1.31011238 -1.42841762 -4.76193701
 1 -3.82328464 0.42631317 -3.75571071
 1 5.16080600 -1.99956825 0.08464484
 1 2.16300600 -2.62936825 1.02804484
 1 3.02730600 -3.46706825 -0.29655516
 1 1.33150600 -1.80786825 -0.74465516
 1 3.25000600 0.27143175 -0.95955516
 1 1.99070600 1.50673175 0.85554484
 1 0.94530600 0.86883175 -0.45155516
 1 2.52260600 -1.63496825 2.83844484
 8 0.06501903 -2.42934996 2.40264492
 1 3.99480600 -1.23056825 -1.90275516
 8 -6.19003766 5.11229953 -3.76475265
 7 -4.57547226 5.54958694 0.66292919
 1 -4.12441989 5.22952074 1.49599781
 1 -5.02716988 6.44057857 0.65024138
 1 -5.56948269 6.21072732 -1.46074591
 7 5.22740600 -3.29186825 6.05354484
 1 6.11040600 -3.71286825 6.26104484
 1 4.60330600 -3.04746825 6.79564484
 1 3.06390600 -1.48476825 6.21534484
 1 1.75810600 -1.77906825 5.09224484
 1 2.41100600 -3.09566825 6.03734484

