%nprocshared=16
%mem=32GB
#p opt b3lyp/6-31g(d)

title

0 1
15 -3.25164951 -0.99332061 0.32002431
 8 -4.02315663 -0.05043539 -0.53154676
 6 -1.02920144 1.91995511 0.52023146
 8 -2.31458980 2.15229547 -0.06933179
 6 -1.31480926 1.63964913 1.98952352
 6 -2.71459689 1.02754558 1.98380008
 8 -2.65635883 -0.40056253 1.64860305
 6 -3.42931761 1.70063799 0.82213247
 6 -4.31801852 2.90432006 1.16602167
 8 -3.58725933 3.76825786 2.00476180
 7 2.68322914 3.67160526 -2.41756226
 6 2.22227333 2.44920845 -2.19732515
 7 1.26761337 2.04206911 -1.40252231
 6 0.77471586 3.06456844 -0.70313871
 6 1.14000636 4.40319282 -0.76773393
 6 2.21528173 4.69247855 -1.69602153
 7 0.41867287 5.21609891 0.11448800
 6 -0.40373076 4.35736596 0.68169040
 7 -0.18116518 3.05336975 0.28207586
 6 1.35083009 -3.11181451 -1.04949448
 8 0.83883009 -1.79671451 -0.91649448
 6 -0.47946991 -3.02941451 -2.45499448
 6 -0.10946991 -1.61311451 -1.90379448
 6 -1.27246991 -0.70281451 -1.37719448
 8 -2.04086991 -1.57131451 -0.38919448
 7 1.53793009 -3.62931451 0.36700552
 6 2.71453009 -4.21731451 0.64610552
 8 3.55153009 -4.44661451 -0.16499448
 7 2.90173009 -4.57071451 1.97600552
 6 1.97923009 -4.35391451 3.01940552
 6 0.71703009 -3.75791451 2.64940552
 6 0.57373009 -3.42541451 1.35430552
 6 -0.26516991 -3.47791451 3.71810552
 8 0.22193009 -2.93401451 -3.81889448
 6 0.07033009 -3.92391451 -1.44559448
 1 -0.59398771 0.97304824 0.13238683
 1 -1.35547128 2.65147408 2.58750252
 1 -0.60633018 1.01617876 2.52665543
 1 -3.23781473 1.22421402 2.94772358
 1 -4.03996177 0.96284382 0.31438423
 1 -4.57963690 3.49868712 0.27411558
 1 -5.23071338 2.62109328 1.68329330
 1 -4.41073634 4.57904710 1.99634332
 1 -1.18719594 4.63384531 1.38451252
 1 2.24763009 -3.29011451 -1.72109448
 1 -0.75016991 -3.91991451 -0.77769448
 1 0.11413009 -4.75761451 -2.10229448
 1 -1.58166991 -3.09841451 -2.55039448
 1 0.33683009 -1.01911451 -2.76529448
 1 -0.92246991 0.21618549 -0.95019448
 1 -1.96786991 -0.42171451 -2.25729448
 1 -0.39056991 -2.92551451 1.03270552
 8 -4.07574406 -2.41686844 0.78759551
 1 1.08163009 -2.52111451 -3.70849448
 8 2.71584019 6.02438798 -1.83926939
 7 2.95455207 1.43405819 -2.96811711
 1 2.71196983 0.46801167 -2.87978863
 1 3.69453543 1.70931310 -3.58025857
 1 3.37747921 3.82847324 -3.12000019
 7 2.31423009 -4.58241451 4.24780552
 1 3.19723009 -5.00341451 4.45530552
 1 1.69013009 -4.33801451 4.98990552
 1 0.15073009 -2.77531451 4.40960552
 1 -1.15506991 -3.06961451 3.28650552
 1 -0.50216991 -4.38621451 4.23160552

