%nprocshared=16GB
%mem=32GB
#p opt freq=noraman b3lyp/6-31g(d)

title

0 1
15 -0.14339928 0.56203462 2.51025928
 8 1.33491635 0.41803435 2.45302399
 6 -1.71574774 -0.48434990 -1.47826724
 8 -0.51531889 0.29630561 -1.53603981
 6 -1.38851547 -1.64115810 -0.54356072
 6 -0.33348913 -1.06666971 0.40036271
 8 -0.96409330 -0.28549025 1.47150159
 6 0.44226408 -0.06760853 -0.44428780
 6 1.75247358 -0.56679916 -1.06963521
 8 1.50378829 -1.80942069 -1.68439522
 7 -4.80796029 0.61403519 -5.31399699
 6 -4.81949342 0.95535056 -4.03391520
 7 -4.00344213 0.62241429 -3.06848090
 6 -3.08401999 -0.23634681 -3.50982265
 6 -2.92271920 -0.73389632 -4.79666043
 6 -3.90950980 -0.27054865 -5.75226205
 7 -1.85115377 -1.62693625 -4.91362652
 6 -1.35323103 -1.63215076 -3.69398136
 7 -2.09554547 -0.87769579 -2.80549933
 6 2.78515969 0.44456249 1.59787287
 8 2.27315969 1.75966249 1.73087287
 6 0.95485969 0.52696249 0.19237287
 6 1.32485969 1.94326249 0.74357287
 6 0.16185969 2.85356249 1.27017287
 8 -0.60654031 1.98506249 2.25817287
 7 2.97225969 -0.07293751 3.01437287
 6 4.14885969 -0.66093751 3.29347287
 8 4.98585969 -0.89023751 2.48237287
 7 4.33605969 -1.01433751 4.62337287
 6 3.41355969 -0.79753751 5.66677287
 6 2.15135969 -0.20153751 5.29677287
 6 2.00805969 0.13096249 4.00167287
 6 1.16915969 0.07846249 6.36547287
 8 1.65625969 0.62236249 -1.17152713
 6 1.50465969 -0.36753751 1.20177287
 1 -2.51754005 0.08174294 -0.95564401
 1 -0.90047086 -2.52027905 -1.15346304
 1 -2.21226340 -2.09185685 0.00185523
 1 0.33324717 -1.87121753 0.78733740
 1 0.66649341 0.80186255 0.16298154
 1 2.11345300 0.10005555 -1.87101623
 1 2.54447151 -0.70268400 -0.33814779
 1 2.56512987 -1.87143275 -2.13746585
 1 -0.44753681 -2.16198788 -3.40552328
 1 3.68195969 0.26626249 0.92627287
 1 0.68415969 -0.36353751 1.86967287
 1 1.54845969 -1.20123751 0.54507287
 1 -0.14734031 0.45796249 0.09697287
 1 1.77115969 2.53726249 -0.11792713
 1 0.51185969 3.77256249 1.69717287
 1 -0.53354031 3.13466249 0.39007287
 1 1.04375969 0.63086249 3.68007287
 8 -0.86317073 0.24059595 4.02777347
 1 2.51595969 1.03526249 -1.06112713
 8 -3.88416972 -0.72934018 -7.10648864
 7 -5.96441355 1.81485410 -3.70030761
 1 -6.09531489 2.13088030 -2.76068735
 1 -6.61170058 2.08330566 -4.41235470
 1 -5.46830813 1.01661164 -5.94793918
 7 3.74855969 -1.02603751 6.89517287
 1 4.63155969 -1.44703751 7.10267287
 1 3.12445969 -0.78163751 7.63727287
 1 1.58505969 0.78106249 7.05697287
 1 0.27925969 0.48676249 5.93387287
 1 0.93215969 -0.82983751 6.87897287

