%nprocshared=16GB
%mem=32GB
#p opt freq=noraman b3lyp/6-31g(d)

title

0 1
15 -1.01174610 1.66029066 1.12658732
 8 -0.20502097 0.98272444 0.07800369
 6 -2.22407426 -0.23219208 -1.25143552
 8 -3.60737531 -0.30600476 -0.88425708
 6 -1.97330639 1.24038721 -1.54738849
 6 -2.97648705 1.97236491 -0.65747494
 8 -2.46730007 2.08751432 0.71464412
 6 -4.17880523 1.04400267 -0.58049912
 6 -5.33313114 1.33192712 -1.55082423
 8 -4.79333618 1.51173748 -2.83930090
 7 -0.40760170 -4.77556021 -2.49211455
 6 -0.28646604 -4.03493074 -1.40031203
 7 -0.75960077 -2.84545160 -1.13548652
 6 -1.39907956 -2.35084066 -2.19568327
 6 -1.60742259 -2.95348744 -3.42975578
 6 -1.01845254 -4.27108266 -3.56642444
 7 -2.31905256 -2.14692176 -4.32557299
 6 -2.56334570 -1.07157193 -3.60485657
 7 -1.97396173 -1.11456019 -2.35569209
 6 3.01007084 1.41279758 0.95016875
 8 2.49807084 2.72789758 1.08316875
 6 1.17977084 1.49519758 -0.45533125
 6 1.54977084 2.91149758 0.09586875
 6 0.38677084 3.82179758 0.62246875
 8 -0.38162916 2.95329758 1.61046875
 7 3.19717084 0.89529758 2.36666875
 6 4.37377084 0.30729758 2.64576875
 8 5.21077084 0.07799758 1.83466875
 7 4.56097084 -0.04610242 3.97566875
 6 3.63847084 0.17069758 5.01906875
 6 2.37627084 0.76669758 4.64906875
 6 2.23297084 1.09919758 3.35396875
 6 1.39407084 1.04669758 5.71776875
 8 1.88117084 1.59059758 -1.81923125
 6 1.72957084 0.60069758 0.55406875
 1 -1.58069532 -0.45627824 -0.37262043
 1 -2.23650199 1.47151197 -2.67003333
 1 -0.96365526 1.61413560 -1.40566581
 1 -3.25466551 2.95676749 -1.09923530
 1 -4.57180126 1.06617146 0.42949963
 1 -6.03237801 0.48240011 -1.63188306
 1 -5.89144784 2.22666274 -1.28904208
 1 -5.83412637 1.58611520 -3.33607870
 1 -3.17232180 -0.23500334 -3.94178174
 1 3.90687084 1.23449758 0.27856875
 1 0.90907084 0.60469758 1.22196875
 1 1.77337084 -0.23300242 -0.10263125
 1 0.07757084 1.42619758 -0.55073125
 1 1.99607084 3.50549758 -0.76563125
 1 0.73677084 4.74079758 1.04946875
 1 -0.30862916 4.10289758 -0.25763125
 1 1.26867084 1.59909758 3.03236875
 8 -1.18891613 0.80471587 2.59656884
 1 2.74087084 2.00349758 -1.70883125
 8 -1.12590147 -4.99343090 -4.79594842
 7 0.54242923 -4.68831219 -0.37712692
 1 0.72259587 -4.22549982 0.49076629
 1 0.92570235 -5.59477759 -0.54882435
 1 -0.04360779 -5.70677028 -2.51124572
 7 3.97347084 -0.05780242 6.24746875
 1 4.85647084 -0.47880242 6.45496875
 1 3.34937084 0.18659758 6.98956875
 1 1.80997084 1.74929758 6.40926875
 1 0.50417084 1.45499758 5.28616875
 1 1.15707084 0.13839758 6.23126875

