%nprocshared=16
%mem=32GB
#p opt b3lyp/6-31g(d)

title

0 1
15 -1.75135824 -0.48929651 -1.33822485
 8 -1.85127486 0.98715465 -1.19844758
 6 -0.68847234 1.23427602 1.23194915
 8 -0.29166811 0.19308026 2.13319712
 6 0.22883495 1.08193784 0.02600435
 6 0.56034549 -0.40920891 -0.00028339
 8 -0.52120761 -1.17128696 -0.63646060
 6 0.56666550 -0.83264835 1.46054167
 6 1.93404904 -0.87976000 2.15691969
 8 2.61525735 0.32049385 1.87544421
 7 -3.38187983 4.78647029 3.60018117
 6 -3.72972959 3.78959252 2.79988507
 7 -2.98652573 2.90536460 2.18780774
 6 -1.69437265 3.14845229 2.40880328
 6 -1.13125922 4.15208565 3.18671604
 6 -2.08888134 5.05300424 3.79739335
 7 0.26819585 4.12294853 3.19813554
 6 0.53510763 3.07316388 2.44833633
 7 -0.59634187 2.50347136 1.89615356
 6 1.75786340 -2.47776946 -3.44371148
 8 1.24586340 -1.16266946 -3.31071148
 6 -0.07243660 -2.39536946 -4.84921148
 6 0.29756340 -0.97906946 -4.29801148
 6 -0.86543660 -0.06876946 -3.77141148
 8 -1.63383660 -0.93726946 -2.78341148
 7 1.94496340 -2.99526946 -2.02721148
 6 3.12156340 -3.58326946 -1.74811148
 8 3.95856340 -3.81256946 -2.55921148
 7 3.30876340 -3.93666946 -0.41821148
 6 2.38626340 -3.71986946 0.62518852
 6 1.12406340 -3.12386946 0.25518852
 6 0.98076340 -2.79136946 -1.03991148
 6 0.14186340 -2.84386946 1.32388852
 8 0.62896340 -2.29996946 -6.21311148
 6 0.47736340 -3.28986946 -3.83981148
 1 -1.70830202 1.03287095 0.83717014
 1 1.22548685 1.67981725 0.20557939
 1 -0.14487749 1.42697233 -0.93340110
 1 1.55211208 -0.58706374 -0.47604656
 1 0.11169197 -1.81325227 1.54085255
 1 1.84199035 -0.92462248 3.25543023
 1 2.55158080 -1.70756657 1.81899947
 1 3.49426120 0.06325378 2.58024505
 1 1.53575688 2.67929197 2.28165260
 1 2.65466340 -2.65606946 -4.11531148
 1 -0.34313660 -3.28586946 -3.17191148
 1 0.52116340 -4.12356946 -4.49651148
 1 -1.17463660 -2.46436946 -4.94461148
 1 0.74386340 -0.38506946 -5.15951148
 1 -0.51543660 0.85023054 -3.34441148
 1 -1.56083660 0.21233054 -4.65151148
 1 0.01646340 -2.29146946 -1.36151148
 8 -3.11805421 -1.37870823 -0.82312098
 1 1.48866340 -1.88706946 -6.10271148
 8 -1.64714119 6.15319205 4.59708947
 7 -5.18201632 3.73837288 2.57824962
 1 -5.57214587 3.03824559 1.98032433
 1 -5.77924862 4.40300648 3.02505333
 1 -4.08368434 5.33586295 4.05366536
 7 2.72126340 -3.94836946 1.85358852
 1 3.60426340 -4.36936946 2.06108852
 1 2.09716340 -3.70396946 2.59568852
 1 0.55776340 -2.14126946 2.01538852
 1 -0.74803660 -2.43556946 0.89228852
 1 -0.09513660 -3.75216946 1.83738852

