%nprocshared=16GB
%mem=32GB
#p opt freq=noraman b3lyp/6-31g(d)

title

0 1
15 0.01209267 0.38875674 0.80512022
 8 -0.29811644 0.24648931 -0.64158616
 6 -2.86561598 1.09756963 -0.58145841
 8 -3.67148577 1.39896442 0.56463285
 6 -1.77323169 2.15853551 -0.58468688
 6 -1.60161417 2.51693300 0.89051059
 8 -0.74577747 1.53523933 1.56805215
 6 -2.98728028 2.35129301 1.49536063
 6 -3.83642352 3.62344694 1.62757162
 8 -3.79423982 4.31284979 0.40004291
 7 -5.30785017 -1.92826553 -3.80028812
 6 -4.35203332 -2.15764254 -2.91200950
 7 -3.73091051 -1.32948039 -2.11375919
 6 -4.13915236 -0.07871233 -2.32941656
 6 -5.10047903 0.36689557 -3.22764235
 6 -5.69572408 -0.67415079 -4.04221404
 7 -5.28162250 1.75465491 -3.19998533
 6 -4.44512176 2.13002290 -2.25401812
 7 -3.68988353 1.08512270 -1.75659262
 6 4.86790277 -0.84981568 0.40611860
 8 4.35590277 0.46528432 0.53911860
 6 3.03760277 -0.76741568 -0.99938140
 6 3.40760277 0.64888432 -0.44818140
 6 2.24460277 1.55918432 0.07841860
 8 1.47620277 0.69068432 1.06641860
 7 5.05500277 -1.36731568 1.82261860
 6 6.23160277 -1.95531568 2.10171860
 8 7.06860277 -2.18461568 1.29061860
 7 6.41880277 -2.30871568 3.43161860
 6 5.49630277 -2.09191568 4.47501860
 6 4.23410277 -1.49591568 4.10501860
 6 4.09080277 -1.16341568 2.80991860
 6 3.25190277 -1.21591568 5.17371860
 8 3.73900277 -0.67201568 -2.36328140
 6 3.58740277 -1.66191568 0.01001860
 1 -2.32530826 0.13762602 -0.42965962
 1 -2.14851372 3.11493124 -1.15695658
 1 -0.82574393 1.89943542 -1.04761524
 1 -1.23401077 3.56258194 1.00483448
 1 -2.88703106 1.90721441 2.47911827
 1 -4.90068890 3.39801539 1.81123615
 1 -3.47664832 4.29225495 2.40478261
 1 -4.56477638 5.10305569 0.74269797
 1 -4.35578919 3.15033614 -1.88632527
 1 5.76470277 -1.02811568 -0.26548140
 1 2.76690277 -1.65791568 0.67791860
 1 3.63120277 -2.49561568 -0.64668140
 1 1.93540277 -0.83641568 -1.09478140
 1 3.85390277 1.24288432 -1.30968140
 1 2.59460277 2.47818432 0.50541860
 1 1.54920277 1.84028432 -0.80168140
 1 3.12650277 -0.66351568 2.48831860
 8 -0.21400019 -1.01499069 1.75518246
 1 4.59870277 -0.25911568 -2.25288140
 8 -6.67553987 -0.35335122 -5.03322872
 7 -3.94734531 -3.57060285 -2.88645101
 1 -3.22267152 -3.87199763 -2.26685193
 1 -4.39636891 -4.22976749 -3.48806350
 1 -5.73604032 -2.68998881 -4.28653970
 7 5.83130277 -2.32041568 5.70341860
 1 6.71430277 -2.74141568 5.91091860
 1 5.20720277 -2.07601568 6.44551860
 1 3.66780277 -0.51331568 5.86521860
 1 2.36200277 -0.80761568 4.74211860
 1 3.01490277 -2.12421568 5.68721860

