%nprocshared=16
%mem=32GB
#p opt b3lyp/6-31g(d)

title

0 1
15 -0.35434805 -0.69792612 -0.43511978
 8 -1.12585517 0.24495910 -1.28669085
 6 -2.09722958 1.84127347 0.66989269
 8 -2.00562739 1.65846022 2.08833496
 6 -0.66560654 2.08359728 0.21087518
 6 0.18270457 1.32294007 1.22865600
 8 0.24094263 -0.10516804 0.89345896
 6 -0.59654080 1.41492187 2.53160141
 6 -0.17693551 2.52373764 3.50697755
 8 -0.06622873 3.72852652 2.78579085
 7 -6.82746543 2.89130528 -0.74550585
 6 -6.10306103 1.78385934 -0.80906953
 7 -4.86512927 1.56811352 -0.44875251
 6 -4.30152146 2.69634600 -0.01628524
 6 -4.87902325 3.95447877 0.09825101
 6 -6.25749289 4.02967514 -0.34422855
 7 -3.99661268 4.92525211 0.58651792
 6 -2.89771043 4.22914123 0.79468141
 7 -3.00636690 2.91445337 0.38307121
 6 4.24813155 -2.81642002 -1.80463857
 8 3.73613155 -1.50132002 -1.67163857
 6 2.41783155 -2.73402002 -3.21013857
 6 2.78783155 -1.31772002 -2.65893857
 6 1.62483155 -0.40742002 -2.13233857
 8 0.85643155 -1.27592002 -1.14433857
 7 4.43523155 -3.33392002 -0.38813857
 6 5.61183155 -3.92192002 -0.10903857
 8 6.44883155 -4.15122002 -0.92013857
 7 5.79903155 -4.27532002 1.22086143
 6 4.87653155 -4.05852002 2.26426143
 6 3.61433155 -3.46252002 1.89426143
 6 3.47103155 -3.13002002 0.59916143
 6 2.63213155 -3.18252002 2.96296143
 8 3.11923155 -2.63862002 -4.57403857
 6 2.96763155 -3.62852002 -2.20073857
 1 -2.39323146 0.88897287 0.17798466
 1 -0.40837089 3.22799245 0.29579586
 1 -0.41359392 1.80683914 -0.80846929
 1 1.19176661 1.78485221 1.32873031
 1 -0.52491941 0.46455819 3.04804505
 1 -0.93794345 2.70584464 4.28474153
 1 0.77840298 2.32579332 3.98546023
 1 0.12933479 4.35574255 3.73653761
 1 -1.99595749 4.63207982 1.25151791
 1 5.14493155 -2.99472002 -2.47623857
 1 2.14713155 -3.62452002 -1.53283857
 1 3.01143155 -4.46222002 -2.85743857
 1 1.31563155 -2.80302002 -3.30553857
 1 3.23413155 -0.72372002 -3.52043857
 1 1.97483155 0.51157998 -1.70533857
 1 0.92943155 -0.12632002 -3.01243857
 1 2.50673155 -2.63012002 0.27756143
 8 -1.17844260 -2.12147395 0.03245142
 1 3.97893155 -2.22572002 -4.46363857
 8 -6.96578514 5.27164489 -0.31431713
 7 -6.84686070 0.66961752 -1.41413950
 1 -6.40598986 -0.22006856 -1.53239992
 1 -7.79284745 0.80121211 -1.70714076
 1 -7.79527490 2.87446866 -0.99664551
 7 5.21153155 -4.28702002 3.49266143
 1 6.09453155 -4.70802002 3.70016143
 1 4.58743155 -4.04262002 4.23476143
 1 3.04803155 -2.47992002 3.65446143
 1 1.74223155 -2.77422002 2.53136143
 1 2.39513155 -4.09082002 3.47646143

