%nprocshared=16GB
%mem=32GB
#p opt freq=noraman b3lyp/6-31g(d)

title

0 1
15 -1.37356875 -1.30186412 1.50944457
 8 -0.56684361 -1.97943034 0.46086094
 6 -2.21345463 0.84496215 -1.34577212
 8 -1.51119938 -0.36484789 -1.65720002
 6 -3.58944533 0.39182371 -0.87643470
 6 -3.33830969 -0.98978987 -0.27461769
 8 -2.82912271 -0.87464046 1.09750137
 6 -2.19789452 -1.57107729 -1.09614610
 6 -2.58806646 -2.50906421 -2.24716565
 8 -3.61281572 -1.89302401 -2.99165605
 7 0.01061992 4.85537087 -3.45555061
 6 0.00771051 4.38699498 -2.21625478
 7 -0.60858655 3.35053472 -1.71149966
 6 -1.37194682 2.76596168 -2.63515852
 6 -1.52606904 3.11956288 -3.96960128
 6 -0.77729337 4.29298312 -4.37462121
 7 -2.41504967 2.28924699 -4.66223598
 6 -2.76410550 1.41656006 -3.73916171
 7 -2.22713817 1.70091632 -2.49801669
 6 2.64824820 -1.54935720 1.33302601
 8 2.13624820 -0.23425720 1.46602601
 6 0.81794820 -1.46695720 -0.07247399
 6 1.18794820 -0.05065720 0.47872601
 6 0.02494820 0.85964280 1.00532601
 8 -0.74345180 -0.00885720 1.99332601
 7 2.83534820 -2.06685720 2.74952601
 6 4.01194820 -2.65485720 3.02862601
 8 4.84894820 -2.88415720 2.21752601
 7 4.19914820 -3.00825720 4.35852601
 6 3.27664820 -2.79145720 5.40192601
 6 2.01444820 -2.19545720 5.03192601
 6 1.87114820 -1.86295720 3.73682601
 6 1.03224820 -1.91545720 6.10062601
 8 1.51934820 -1.37155720 -1.43637399
 6 1.36774820 -2.36145720 0.93692601
 1 -1.75978838 1.33462196 -0.45645370
 1 -4.30513645 0.26837939 -1.80140483
 1 -4.12081027 1.03984693 -0.18586552
 1 -4.25085852 -1.62530690 -0.34502112
 1 -1.52962695 -2.10840594 -0.43302381
 1 -1.75658312 -2.67122526 -2.95395565
 1 -2.95228595 -3.47271727 -1.90145449
 1 -3.61270159 -2.71984455 -3.79907925
 1 -3.39922186 0.55238083 -3.92365814
 1 3.54504820 -1.72765720 0.66142601
 1 0.54724820 -2.35745720 1.60482601
 1 1.41154820 -3.19515720 0.28022601
 1 -0.28425180 -1.53595720 -0.16787399
 1 1.63424820 0.54334280 -0.38277399
 1 0.37494820 1.77864280 1.43232601
 1 -0.67045180 1.14074280 0.12522601
 1 0.90684820 -1.36305720 3.41522601
 8 -1.55073878 -2.15743891 2.97942609
 1 2.37904820 -0.95865720 -1.32597399
 8 -0.86913164 4.79024732 -5.71228914
 7 0.81206422 5.21758264 -1.30849837
 1 0.87973875 4.97837562 -0.33994579
 1 1.29115845 6.02101248 -1.65925044
 1 0.59944356 5.62550303 -3.70089313
 7 3.61164820 -3.01995720 6.63032601
 1 4.49464820 -3.44095720 6.83782601
 1 2.98754820 -2.77555720 7.37242601
 1 1.44814820 -1.21285720 6.79212601
 1 0.14234820 -1.50715720 5.66902601
 1 0.79524820 -2.82375720 6.61412601

