%nprocshared=16
%mem=32GB
#p opt b3lyp/6-31g(d)

title

0 1
15 -2.49757908 -0.29866936 -2.50852544
 8 -3.26908620 0.64421586 -3.36009651
 6 -1.42157543 1.67456970 1.49752469
 8 -0.24473551 2.04059700 0.76618213
 6 -2.57641280 1.92888769 0.53802718
 6 -1.96052646 1.72219683 -0.84474966
 8 -1.90228840 0.29408872 -1.17994670
 6 -0.51629240 2.17664687 -0.69978799
 6 -0.20008616 3.61328800 -1.13907776
 8 -1.16091043 4.47145425 -0.56964830
 7 -0.50920312 1.45830464 6.45755061
 6 -0.63929635 0.51802011 5.53333238
 7 -0.90153785 0.62520219 4.25716975
 6 -1.11195327 1.90030593 3.92941061
 6 -1.05123376 3.01841583 4.75140106
 6 -0.75122939 2.73215634 6.14052816
 7 -1.33379816 4.21383704 4.08014899
 6 -1.53017692 3.80398915 2.84364236
 7 -1.48121400 2.42874092 2.71743507
 6 2.10490052 -2.41716326 -3.87804423
 8 1.59290052 -1.10206326 -3.74504423
 6 0.27460052 -2.33476326 -5.28354423
 6 0.64460052 -0.91846326 -4.73234423
 6 -0.51839948 -0.00816326 -4.20574423
 8 -1.28679948 -0.87666326 -3.21774423
 7 2.29200052 -2.93466326 -2.46154423
 6 3.46860052 -3.52266326 -2.18244423
 8 4.30560052 -3.75196326 -2.99354423
 7 3.65580052 -3.87606326 -0.85254423
 6 2.73330052 -3.65926326 0.19085577
 6 1.47110052 -3.06326326 -0.17914423
 6 1.32780052 -2.73076326 -1.47424423
 6 0.48890052 -2.78326326 0.88955577
 8 0.97600052 -2.23936326 -6.64744423
 6 0.82440052 -3.22926326 -4.27414423
 1 -1.43857112 0.57680420 1.67384570
 1 -2.92656531 3.04827634 0.62395891
 1 -3.47597633 1.33504149 0.66955944
 1 -2.49780133 2.32479447 -1.61273124
 1 0.11905826 1.50266158 -1.26291157
 1 0.77673108 3.96013986 -0.76127527
 1 -0.22830537 3.74074482 -2.21785378
 1 -0.63052035 5.42490862 -0.95066742
 1 -1.70326882 4.46847334 1.99941643
 1 3.00170052 -2.59546326 -4.54964423
 1 0.00390052 -3.22526326 -3.60624423
 1 0.86820052 -4.06296326 -4.93084423
 1 -0.82759948 -2.40376326 -5.37894423
 1 1.09090052 -0.32446326 -5.59384423
 1 -0.16839948 0.91083674 -3.77874423
 1 -1.21379948 0.27293674 -5.08584423
 1 0.36350052 -2.23086326 -1.79584423
 8 -3.32167364 -1.72221719 -2.04095424
 1 1.83570052 -1.82646326 -6.53704423
 8 -0.69143419 3.78601311 7.10534519
 7 -0.48585062 -0.83285444 6.09232685
 1 -0.57584609 -1.63267572 5.49896298
 1 -0.29158626 -0.95184038 7.06503518
 1 -0.23143950 1.21517786 7.38693025
 7 3.06830052 -3.88776326 1.41925577
 1 3.95130052 -4.30876326 1.62675577
 1 2.44420052 -3.64336326 2.16135577
 1 0.90480052 -2.08066326 1.58105577
 1 -0.40099948 -2.37496326 0.45795577
 1 0.25190052 -3.69156326 1.40305577

