%nprocshared=16GB
%mem=32GB
#p opt freq=noraman b3lyp/6-31g(d)

title

0 1
15 0.60401170 1.38837961 0.54980615
 8 1.41073683 0.71081339 -0.49877748
 6 -2.80959378 -0.20757084 -1.03621820
 8 -3.61062535 0.97990156 -0.99096536
 6 -1.48502560 0.23393872 -1.64412520
 6 -1.36072925 1.70045386 -1.23425612
 8 -0.85154227 1.81560327 0.13786295
 6 -2.79102251 2.21618720 -1.19386954
 6 -3.29201221 2.95264357 -2.44428585
 8 -2.96297863 2.17927169 -3.57455809
 7 -5.64821593 -4.35695560 -0.58247672
 6 -4.86800485 -3.71279787 0.27284197
 7 -4.12912636 -2.64861660 0.09841014
 6 -4.18007926 -2.24819531 -1.17228134
 6 -4.90897234 -2.80148481 -2.21732227
 6 -5.67634134 -3.97910982 -1.86240626
 7 -4.72811702 -2.13130697 -3.43289081
 6 -3.91205852 -1.15301035 -3.09752115
 7 -3.49967740 -1.22267749 -1.78043283
 6 4.62582864 1.14088653 0.37338758
 8 4.11382864 2.45598653 0.50638758
 6 2.79552864 1.22328653 -1.03211242
 6 3.16552864 2.63958653 -0.48091242
 6 2.00252864 3.54988653 0.04568758
 8 1.23412864 2.68138653 1.03368758
 7 4.81292864 0.62338653 1.78988758
 6 5.98952864 0.03538653 2.06898758
 8 6.82652864 -0.19391347 1.25788758
 7 6.17672864 -0.31801347 3.39888758
 6 5.25422864 -0.10121347 4.44228758
 6 3.99202864 0.49478653 4.07228758
 6 3.84872864 0.82728653 2.77718758
 6 3.00982864 0.77478653 5.14098758
 8 3.49692864 1.31868653 -2.39601242
 6 3.34532864 0.32878653 -0.02271242
 1 -2.55088650 -0.53613190 -0.00588562
 1 -1.54793910 0.18130655 -2.81728067
 1 -0.59852256 -0.33377227 -1.37769476
 1 -0.74795957 2.26817775 -1.97167513
 1 -2.89781413 2.88049007 -0.34396835
 1 -4.39050752 3.05442156 -2.45701977
 1 -2.84371566 3.93531012 -2.56343241
 1 -3.53153717 2.87754213 -4.29893646
 1 -3.59638458 -0.36107100 -3.77383431
 1 5.52262864 0.96258653 -0.29821242
 1 2.52482864 0.33278653 0.64518758
 1 3.38912864 -0.50491347 -0.67941242
 1 1.69332864 1.15428653 -1.12751242
 1 3.61182864 3.23358653 -1.34241242
 1 2.35252864 4.46888653 0.47268758
 1 1.30712864 3.83098653 -0.83441242
 1 2.88442864 1.32718653 2.45558758
 8 0.42684167 0.53280482 2.01978766
 1 4.35662864 1.73158653 -2.28561242
 8 -6.44680749 -4.67137870 -2.84841192
 7 -4.84510725 -4.35630789 1.59430064
 1 -4.28156278 -3.97435470 2.32670990
 1 -5.39262598 -5.17521150 1.76066746
 1 -6.21253403 -5.12154598 -0.27109850
 7 5.58922864 -0.32971347 5.67068758
 1 6.47222864 -0.75071347 5.87818758
 1 4.96512864 -0.08531347 6.41278758
 1 3.42572864 1.47738653 5.83248758
 1 2.11992864 1.18308653 4.70938758
 1 2.77282864 -0.13351347 5.65448758

