%nprocshared=16
%mem=32GB
#p opt b3lyp/6-31g(d)

title

0 1
15 0.01545801 0.37686747 0.79728631
 8 -0.30272822 0.24274399 -0.64846521
 6 -2.86503055 1.10803942 -0.57179965
 8 -3.66348099 1.40891772 0.57960786
 6 -1.76667721 2.16282197 -0.57582124
 6 -1.58571170 2.51372698 0.90006022
 8 -0.73210360 1.52423260 1.56901132
 6 -2.96927616 2.35324738 1.51108101
 6 -3.81052560 3.62958120 1.65310559
 8 -3.77052549 4.32414834 0.42841829
 7 -5.34032636 -1.88970997 -3.79165371
 6 -4.38142925 -2.12840229 -2.90916808
 7 -3.75166679 -1.30729458 -2.11039964
 6 -4.15387491 -0.05330047 -2.31852851
 6 -5.11710493 0.40169223 -3.20998490
 6 -5.72227849 -0.63236831 -4.02613745
 7 -5.29023688 1.79031697 -3.17533635
 6 -4.44693709 2.15677333 -2.23191504
 7 -3.69517683 1.10543760 -1.74285161
 6 4.87423528 -0.87113650 0.39230155
 8 4.36223528 0.44396350 0.52530155
 6 3.04393528 -0.78873650 -1.01319845
 6 3.41393528 0.62756350 -0.46199845
 6 2.25093528 1.53786350 0.06460155
 8 1.48253528 0.66936350 1.05260155
 7 5.06133528 -1.38863650 1.80880155
 6 6.23793528 -1.97663650 2.08790155
 8 7.07493528 -2.20593650 1.27680155
 7 6.42513528 -2.33003650 3.41780155
 6 5.50263528 -2.11323650 4.46120155
 6 4.24043528 -1.51723650 4.09120155
 6 4.09713528 -1.18473650 2.79610155
 6 3.25823528 -1.23723650 5.15990155
 8 3.74533528 -0.69333650 -2.37709845
 6 3.59373528 -1.68323650 -0.00379845
 1 -2.32942811 0.14439828 -0.42691063
 1 -2.13936532 3.12383981 -1.14201050
 1 -0.82298280 1.90042078 -1.04460165
 1 -1.21162218 3.55676783 1.01713594
 1 -2.86666602 1.90427005 2.49236859
 1 -4.87512763 3.40935594 1.84108489
 1 -3.44311134 4.29290798 2.43143945
 1 -4.53485899 5.11717326 0.77837574
 1 -4.34999683 3.17493217 -1.86019926
 1 5.77103528 -1.04943650 -0.27929845
 1 2.77323528 -1.67923650 0.66410155
 1 3.63753528 -2.51693650 -0.66049845
 1 1.94173528 -0.85773650 -1.10859845
 1 3.86023528 1.22156350 -1.32349845
 1 2.60093528 2.45686350 0.49160155
 1 1.55553528 1.81896350 -0.81549845
 1 3.13283528 -0.68483650 2.47450155
 8 -0.21387356 -1.02976190 1.74229633
 1 4.60503528 -0.28043650 -2.26669845
 8 -6.70516528 -0.30166659 -5.01083608
 7 -3.98463792 -3.54372502 -2.89182777
 1 -3.25861899 -3.85194126 -2.27717893
 1 -4.44037197 -4.19767993 -3.49407960
 1 -5.77523662 -2.64684796 -4.27910104
 7 5.83763528 -2.34173650 5.68960155
 1 6.72063528 -2.76273650 5.89710155
 1 5.21353528 -2.09733650 6.43170155
 1 3.67413528 -0.53463650 5.85140155
 1 2.36833528 -0.82893650 4.72830155
 1 3.02123528 -2.14553650 5.67340155

