%nprocshared=16
%mem=32GB
#p opt b3lyp/6-31g(d)

title

0 1
15 -2.35314324 -0.94195521 0.22709950
 8 -2.45305986 0.53449596 0.36687677
 6 -0.43097381 1.33595186 0.67238295
 8 -0.97602414 1.27840723 1.99654263
 6 0.53995365 0.16536172 0.59504570
 6 -0.04143951 -0.86186760 1.56504097
 8 -1.12299260 -1.62394565 0.92886376
 6 -0.69997899 -0.03546966 2.65899844
 6 0.12619712 0.20555646 3.93031235
 8 1.41321524 0.63076283 3.54734187
 7 -1.18290562 5.86375131 -1.42873143
 6 -1.78392931 4.69441621 -1.59202421
 7 -1.53409570 3.53700952 -1.03809048
 6 -0.46372531 3.61931332 -0.24744293
 6 0.31366402 4.73651443 0.03014030
 6 -0.09170531 5.94293248 -0.66401559
 7 1.37335159 4.46899281 0.90475353
 6 1.20192729 3.19081422 1.17375497
 7 0.16651917 2.62307083 0.45595917
 6 1.15607840 -2.93042815 -1.87838713
 8 0.64407840 -1.61532815 -1.74538713
 6 -0.67422160 -2.84802815 -3.28388713
 6 -0.30422160 -1.43172815 -2.73268713
 6 -1.46722160 -0.52142815 -2.20608713
 8 -2.23562160 -1.38992815 -1.21808713
 7 1.34317840 -3.44792815 -0.46188713
 6 2.51977840 -4.03592815 -0.18278713
 8 3.35677840 -4.26522815 -0.99388713
 7 2.70697840 -4.38932815 1.14711287
 6 1.78447840 -4.17252815 2.19051287
 6 0.52227840 -3.57652815 1.82051287
 6 0.37897840 -3.24402815 0.52541287
 6 -0.45992160 -3.29652815 2.88921287
 8 0.02717840 -2.75262815 -4.64778713
 6 -0.12442160 -3.74252815 -2.27448713
 1 -1.21728260 1.09955639 -0.07748550
 1 1.59538015 0.49617070 0.99462340
 1 0.72530308 -0.26686697 -0.38372523
 1 0.76076756 -1.51436693 1.98012209
 1 -1.62973016 -0.51387172 2.94488131
 1 -0.28871993 1.01844533 4.55020621
 1 0.23156682 -0.68715359 4.54085739
 1 1.74118784 0.83463079 4.63657842
 1 1.79900142 2.63152727 1.89133288
 1 2.05287840 -3.10872815 -2.54998713
 1 -0.94492160 -3.73852815 -1.60658713
 1 -0.08062160 -4.57622815 -2.93118713
 1 -1.77642160 -2.91702815 -3.37928713
 1 0.14207840 -0.83772815 -3.59418713
 1 -1.11722160 0.39757185 -1.77908713
 1 -2.16262160 -0.24032815 -3.08618713
 1 -0.58532160 -2.74412815 0.20381287
 8 -3.71983921 -1.83136692 0.74220338
 1 0.88687840 -2.33972815 -4.53738713
 8 0.64044210 7.16010917 -0.49817671
 7 -2.86894413 4.76289287 -2.58143628
 1 -3.39314572 3.94157436 -2.80625295
 1 -3.08266127 5.63001098 -3.02919622
 1 -1.54450792 6.68198445 -1.87566329
 7 2.11947840 -4.40102815 3.41891287
 1 3.00247840 -4.82202815 3.62641287
 1 1.49537840 -4.15662815 4.16101287
 1 -0.04402160 -2.59392815 3.58071287
 1 -1.34982160 -2.88822815 2.45761287
 1 -0.69692160 -4.20482815 3.40271287

