%nprocshared=16
%mem=32GB
#p opt pop=hirshfeld freq=noraman b3lyp/genecp empiricaldispersion=gd3bj scrf=(smd,solvent=dichloromethane)

title

2 2
 6 -3.47015800 1.11753300 -0.76350400
 6 -1.27139000 1.37038700 -0.30148800
 6 -2.80488300 -0.27912300 -0.69709900
 1 -3.89352800 1.35114200 -1.73922800
 1 -2.79806900 -0.74263300 -1.68834500
 1 -4.20475100 1.30100400 0.01943400
 6 -0.04817900 2.20708800 -0.00996800
 6 0.25041100 3.08151900 -1.26036800
 1 -0.61866000 3.70297400 -1.48494100
 1 1.10450900 3.72878700 -1.05177200
 1 0.47815900 2.45519200 -2.12864900
 6 -0.36229000 3.10658700 1.21733600
 1 -0.57703400 2.49882100 2.10184100
 1 0.49375600 3.75079100 1.42478600
 1 -1.22944700 3.73049700 0.99404300
 6 1.19158000 1.40075800 0.29737100
 6 3.39006600 1.20889900 0.77039400
 6 2.76187900 -0.20060700 0.72246200
 1 3.87820200 1.44098400 1.71476100
 1 4.05614600 1.42163200 -0.06572000
 1 2.68406200 -0.61485700 1.73305300
 8 2.24760400 2.12150100 0.63289400
 8 -2.37182700 2.06390500 -0.53063100
 7 -1.39763400 0.08583400 -0.36411700
 7 1.37532800 0.12134800 0.27607400
 6 -3.44745000 -1.27859600 0.30024900
 6 -2.78651100 -2.66166300 0.16483900
 6 -3.33090500 -0.78504400 1.74879600
 6 -4.92877300 -1.42791000 -0.09600600
 1 -2.78385000 -3.00466700 -0.87634100
 1 -1.75132100 -2.69010600 0.54501300
 1 -3.33660200 -3.39872500 0.75951800
 1 -3.84269900 0.17170000 1.90111300
 1 -3.78761900 -1.51325500 2.42715500
 1 -2.28365200 -0.65875700 2.04733000
 1 -5.41096500 -2.17052500 0.54807000
 1 -5.48040100 -0.48848500 0.01394100
 1 -5.02820500 -1.76575100 -1.13447500
 6 3.50169600 -1.22928000 -0.16674400
 6 2.88462600 -2.62819700 0.01670400
 6 3.46119900 -0.82864700 -1.64710000
 6 4.95991300 -1.28640900 0.32957400
 1 2.77596400 -2.88327000 1.07703800
 1 1.90239600 -2.75258500 -0.47412800
 1 3.53008100 -3.38232900 -0.44650200
 1 3.95712700 0.13111000 -1.82877800
 1 3.97398300 -1.58458100 -2.25110100
 1 2.42946200 -0.74942100 -2.01118100
 1 5.51626700 -2.03846900 -0.23931200
 1 5.47282300 -0.32730600 0.19988800
 1 5.00670300 -1.56059600 1.39014000
29 0.04179700 -1.15915900 -0.18728100

-C -H -N -O -F -S 0
6-31G(d)
****
-Cu -Sb
SDD
****

-Cu -Sb
SDD

