%nprocshared=16
%mem=32GB
#p opt freq=noraman b3lyp/genecp empiricaldispersion=gd3bj

title

0 1
28 2.17202300 0.00040700 -0.00612300
 6 2.63868100 0.52419500 -1.67158800
 8 2.88928300 0.86164100 -2.74393800
 6 2.64358400 1.18103500 1.27822400
 8 2.89706800 1.94159100 2.10520400
 6 2.64425600 -1.70209900 0.37320600
 8 2.89821400 -2.79849400 0.61830000
15 -0.07583300 -0.00055300 -0.00089800
 6 -0.85428700 1.36411800 -0.94846300
 6 -0.25767000 2.63251800 -0.88496700
 6 -2.01647600 1.19100700 -1.71203300
 6 -0.82118600 3.71166400 -1.56302200
 1 0.65189400 2.76825100 -0.30721400
 6 -2.57376900 2.27183400 -2.39731000
 1 -2.48244700 0.21308200 -1.77359000
 6 -1.97984500 3.53247900 -2.32232500
 1 -0.35126000 4.68930000 -1.50629100
 1 -3.47210200 2.12691900 -2.99083100
 7 -2.57420980 4.68051723 -3.05560551
 6 -0.85372600 -1.50580200 -0.70450500
 6 -2.01951200 -2.07483100 -0.17439700
 6 -0.25431200 -2.09207000 -1.82946200
 6 -2.57744000 -3.21024200 -0.76407500
 1 -2.48760500 -1.63327000 0.69922000
 6 -0.81828500 -3.22068200 -2.42126300
 1 0.65783100 -1.66374900 -2.23449600
 6 -1.98038500 -3.78298700 -1.88802500
 1 -3.47856800 -3.64733700 -0.34314600
 1 -0.34606300 -3.66611600 -3.29213400
 7 -2.57525593 -4.99384759 -2.51165079
 6 -0.84673900 0.13993300 1.65808500
 6 -2.00431700 0.89318800 1.89532200
 6 -0.24907900 -0.55301700 2.72176200
 6 -2.55593600 0.94815300 3.17637100
 1 -2.47108400 1.43811900 1.08143100
 6 -0.80695100 -0.50341800 3.99775700
 1 0.65688800 -1.12569400 2.54619700
 6 -1.96093200 0.24933900 4.22765500
 1 -3.45070200 1.53882400 3.35179100
 1 -0.33624600 -1.04425600 4.81369500
 7 -2.54915084 0.31242978 5.59109786
 6 -2.03282120 5.93759536 -2.51944131
 1 -2.46032576 6.76409389 -3.04768834
 1 -0.96969193 5.94842969 -2.64034878
 1 -2.27437060 6.01537144 -1.47992773
 6 -2.24288219 4.57399604 -4.48383036
 1 -2.63687222 3.65889815 -4.87403911
 1 -2.67078908 5.40047507 -5.01178118
 1 -1.17983715 4.58506887 -4.60510664
 6 -1.54231026 -5.71033017 -3.27355305
 1 -1.97044094 -6.58234590 -3.72210355
 1 -0.75014750 -6.00021431 -2.61520268
 1 -1.15439623 -5.06996590 -4.03803982
 6 -3.10858119 -5.87381628 -1.46180783
 1 -3.86037456 -5.35221118 -0.90716379
 1 -3.53687974 -6.74555355 -1.91073817
 1 -2.31662772 -6.16409540 -0.80344391
 6 -2.01639727 -0.78888996 6.40601352
 1 -2.43947366 -0.74317818 7.38775773
 1 -0.95198066 -0.70137264 6.47187581
 1 -2.26994875 -1.72388441 5.95161200
 6 -2.20133377 1.59688799 6.21571084
 1 -2.58903898 2.39851692 5.62243948
 1 -2.62481581 1.64235791 7.19729090
 1 -1.13699764 1.68460510 6.28196506

-C -H -N -O -F -S -P -Cl 0
6-31G(d)
****
-Ni
SDD
****

-Ni
SDD

--Link1--
%nprocshared=16
%mem=32GB
#p opt freq=noraman b3lyp/genecp empiricaldispersion=gd3bj

title

0 1
28 2.17202300 0.00040700 -0.00612300
 6 2.63868100 0.52419500 -1.67158800
 8 2.88928300 0.86164100 -2.74393800
 6 2.64358400 1.18103500 1.27822400
 8 2.89706800 1.94159100 2.10520400
 6 2.64425600 -1.70209900 0.37320600
 8 2.89821400 -2.79849400 0.61830000
15 -0.07583300 -0.00055300 -0.00089800
 6 -0.85428700 1.36411800 -0.94846300
 6 -0.25767000 2.63251800 -0.88496700
 6 -2.01647600 1.19100700 -1.71203300
 6 -0.82118600 3.71166400 -1.56302200
 1 0.65189400 2.76825100 -0.30721400
 6 -2.57376900 2.27183400 -2.39731000
 1 -2.48244700 0.21308200 -1.77359000
 6 -1.97984500 3.53247900 -2.32232500
 1 -0.35126000 4.68930000 -1.50629100
 1 -3.47210200 2.12691900 -2.99083100
 8 -2.55421445 4.64189545 -3.03093682
 6 -0.85372600 -1.50580200 -0.70450500
 6 -2.01951200 -2.07483100 -0.17439700
 6 -0.25431200 -2.09207000 -1.82946200
 6 -2.57744000 -3.21024200 -0.76407500
 1 -2.48760500 -1.63327000 0.69922000
 6 -0.81828500 -3.22068200 -2.42126300
 1 0.65783100 -1.66374900 -2.23449600
 6 -1.98038500 -3.78298700 -1.88802500
 1 -3.47856800 -3.64733700 -0.34314600
 1 -0.34606300 -3.66611600 -3.29213400
 8 -2.55524356 -4.95311239 -2.49067106
 6 -0.84673900 0.13993300 1.65808500
 6 -2.00431700 0.89318800 1.89532200
 6 -0.24907900 -0.55301700 2.72176200
 6 -2.55593600 0.94815300 3.17637100
 1 -2.47108400 1.43811900 1.08143100
 6 -0.80695100 -0.50341800 3.99775700
 1 0.65688800 -1.12569400 2.54619700
 6 -1.96093200 0.24933900 4.22765500
 1 -3.45070200 1.53882400 3.35179100
 1 -0.33624600 -1.04425600 4.81369500
 8 -2.52936223 0.31030731 5.54522950
 6 -1.51525671 5.39360986 -3.66379307
 1 -0.98753521 4.76486595 -4.35022218
 1 -1.94387824 6.21880460 -4.19316777
 1 -0.83698813 5.75960643 -2.92150468
 6 -1.77818932 -6.10132637 -2.14023401
 1 -1.76880759 -6.21445725 -1.07622875
 1 -2.20802536 -6.97299744 -2.58781739
 1 -0.77632781 -5.97564058 -2.49445202
 6 -1.48673363 0.49147538 6.50706030
 1 -0.96464996 1.40224051 6.29986639
 1 -1.91094262 0.53881524 7.48823615
 1 -0.80449317 -0.33107611 6.45273900

-C -H -N -O -F -S -P -Cl 0
6-31G(d)
****
-Ni
SDD
****

-Ni
SDD

--Link1--
%nprocshared=16
%mem=32GB
#p opt freq=noraman b3lyp/genecp empiricaldispersion=gd3bj

title

0 1
28 2.17202300 0.00040700 -0.00612300
 6 2.63868100 0.52419500 -1.67158800
 8 2.88928300 0.86164100 -2.74393800
 6 2.64358400 1.18103500 1.27822400
 8 2.89706800 1.94159100 2.10520400
 6 2.64425600 -1.70209900 0.37320600
 8 2.89821400 -2.79849400 0.61830000
15 -0.07583300 -0.00055300 -0.00089800
 6 -0.85428700 1.36411800 -0.94846300
 6 -0.25767000 2.63251800 -0.88496700
 6 -2.01647600 1.19100700 -1.71203300
 6 -0.82118600 3.71166400 -1.56302200
 1 0.65189400 2.76825100 -0.30721400
 6 -2.57376900 2.27183400 -2.39731000
 1 -2.48244700 0.21308200 -1.77359000
 6 -1.97984500 3.53247900 -2.32232500
 1 -0.35126000 4.68930000 -1.50629100
 1 -3.47210200 2.12691900 -2.99083100
 6 -2.59420515 4.71913901 -3.08027420
 6 -0.85372600 -1.50580200 -0.70450500
 6 -2.01951200 -2.07483100 -0.17439700
 6 -0.25431200 -2.09207000 -1.82946200
 6 -2.57744000 -3.21024200 -0.76407500
 1 -2.48760500 -1.63327000 0.69922000
 6 -0.81828500 -3.22068200 -2.42126300
 1 0.65783100 -1.66374900 -2.23449600
 6 -1.98038500 -3.78298700 -1.88802500
 1 -3.47856800 -3.64733700 -0.34314600
 1 -0.34606300 -3.66611600 -3.29213400
 6 -2.59526830 -5.03458279 -2.53263051
 6 -0.84673900 0.13993300 1.65808500
 6 -2.00431700 0.89318800 1.89532200
 6 -0.24907900 -0.55301700 2.72176200
 6 -2.55593600 0.94815300 3.17637100
 1 -2.47108400 1.43811900 1.08143100
 6 -0.80695100 -0.50341800 3.99775700
 1 0.65688800 -1.12569400 2.54619700
 6 -1.96093200 0.24933900 4.22765500
 1 -3.45070200 1.53882400 3.35179100
 1 -0.33624600 -1.04425600 4.81369500
 6 -2.56893944 0.31455226 5.63696622
 1 -2.20014593 5.63420584 -2.68992055
 1 -2.35306220 4.64166453 -4.11991535
 1 -3.65724115 4.70804874 -2.95890099
 1 -1.95058405 -5.38884466 -3.30973198
 1 -2.71217486 -5.79693036 -1.79089945
 1 -3.55125044 -4.78971648 -2.94619867
 1 -2.19452271 -0.49736812 6.22484661
 1 -2.30122155 1.24217585 6.09832026
 1 -3.63448345 0.24427395 5.56931320

-C -H -N -O -F -S -P -Cl 0
6-31G(d)
****
-Ni
SDD
****

-Ni
SDD

--Link1--
%nprocshared=16
%mem=32GB
#p opt freq=noraman b3lyp/genecp empiricaldispersion=gd3bj

title

0 1
28 2.17202300 0.00040700 -0.00612300
 6 2.63868100 0.52419500 -1.67158800
 8 2.88928300 0.86164100 -2.74393800
 6 2.64358400 1.18103500 1.27822400
 8 2.89706800 1.94159100 2.10520400
 6 2.64425600 -1.70209900 0.37320600
 8 2.89821400 -2.79849400 0.61830000
15 -0.07583300 -0.00055300 -0.00089800
 6 -0.85428700 1.36411800 -0.94846300
 6 -0.25767000 2.63251800 -0.88496700
 6 -2.01647600 1.19100700 -1.71203300
 6 -0.82118600 3.71166400 -1.56302200
 1 0.65189400 2.76825100 -0.30721400
 6 -2.57376900 2.27183400 -2.39731000
 1 -2.48244700 0.21308200 -1.77359000
 6 -1.97984500 3.53247900 -2.32232500
 1 -0.35126000 4.68930000 -1.50629100
 1 -3.47210200 2.12691900 -2.99083100
 6 -2.59420515 4.71913901 -3.08027420
 6 -0.85372600 -1.50580200 -0.70450500
 6 -2.01951200 -2.07483100 -0.17439700
 6 -0.25431200 -2.09207000 -1.82946200
 6 -2.57744000 -3.21024200 -0.76407500
 1 -2.48760500 -1.63327000 0.69922000
 6 -0.81828500 -3.22068200 -2.42126300
 1 0.65783100 -1.66374900 -2.23449600
 6 -1.98038500 -3.78298700 -1.88802500
 1 -3.47856800 -3.64733700 -0.34314600
 1 -0.34606300 -3.66611600 -3.29213400
 6 -2.59526830 -5.03458279 -2.53263051
 6 -0.84673900 0.13993300 1.65808500
 6 -2.00431700 0.89318800 1.89532200
 6 -0.24907900 -0.55301700 2.72176200
 6 -2.55593600 0.94815300 3.17637100
 1 -2.47108400 1.43811900 1.08143100
 6 -0.80695100 -0.50341800 3.99775700
 1 0.65688800 -1.12569400 2.54619700
 6 -1.96093200 0.24933900 4.22765500
 1 -3.45070200 1.53882400 3.35179100
 1 -0.33624600 -1.04425600 4.81369500
 6 -2.56893944 0.31455226 5.63696622
 9 -3.93542222 4.70512441 -2.92717177
 9 -2.28985969 4.62135407 -4.39189340
 9 -2.09699527 5.87357047 -2.58772641
 9 -3.80143103 -4.72564844 -3.05438814
 9 -2.74265575 -5.99635499 -1.59678643
 9 -1.78185243 -5.48145941 -3.51303293
 9 -3.91331978 0.22592229 5.55160677
 9 -2.23106641 1.48486773 6.21897695
 9 -2.09651231 -0.70982646 6.37858191

-C -H -N -O -F -S -P -Cl 0
6-31G(d)
****
-Ni
SDD
****

-Ni
SDD

--Link1--
%nprocshared=16
%mem=32GB
#p opt freq=noraman b3lyp/genecp empiricaldispersion=gd3bj

title

0 1
28 2.17202300 0.00040700 -0.00612300
 6 2.63868100 0.52419500 -1.67158800
 8 2.88928300 0.86164100 -2.74393800
 6 2.64358400 1.18103500 1.27822400
 8 2.89706800 1.94159100 2.10520400
 6 2.64425600 -1.70209900 0.37320600
 8 2.89821400 -2.79849400 0.61830000
15 -0.07583300 -0.00055300 -0.00089800
 6 -0.85428700 1.36411800 -0.94846300
 6 -0.25767000 2.63251800 -0.88496700
 6 -2.01647600 1.19100700 -1.71203300
 6 -0.82118600 3.71166400 -1.56302200
 1 0.65189400 2.76825100 -0.30721400
 6 -2.57376900 2.27183400 -2.39731000
 1 -2.48244700 0.21308200 -1.77359000
 6 -1.97984500 3.53247900 -2.32232500
 1 -0.35126000 4.68930000 -1.50629100
 1 -3.47210200 2.12691900 -2.99083100
 6 -2.59420515 4.71913901 -3.08027420
 6 -0.85372600 -1.50580200 -0.70450500
 6 -2.01951200 -2.07483100 -0.17439700
 6 -0.25431200 -2.09207000 -1.82946200
 6 -2.57744000 -3.21024200 -0.76407500
 1 -2.48760500 -1.63327000 0.69922000
 6 -0.81828500 -3.22068200 -2.42126300
 1 0.65783100 -1.66374900 -2.23449600
 6 -1.98038500 -3.78298700 -1.88802500
 1 -3.47856800 -3.64733700 -0.34314600
 1 -0.34606300 -3.66611600 -3.29213400
 6 -2.59526830 -5.03458279 -2.53263051
 6 -0.84673900 0.13993300 1.65808500
 6 -2.00431700 0.89318800 1.89532200
 6 -0.24907900 -0.55301700 2.72176200
 6 -2.55593600 0.94815300 3.17637100
 1 -2.47108400 1.43811900 1.08143100
 6 -0.80695100 -0.50341800 3.99775700
 1 0.65688800 -1.12569400 2.54619700
 6 -1.96093200 0.24933900 4.22765500
 1 -3.45070200 1.53882400 3.35179100
 1 -0.33624600 -1.04425600 4.81369500
 6 -2.56893944 0.31455226 5.63696622
 8 -3.83218539 4.94369264 -3.10375081
 8 -1.64540859 5.54784314 -3.75692667
 6 -2.09142442 6.68454662 -4.50113626
 1 -2.60406921 7.35957713 -3.84819575
 1 -1.24818000 7.17970644 -4.93548143
 1 -2.75568022 6.36486101 -5.27669842
 8 -3.57247760 -4.98185545 -3.32373882
 8 -1.96726835 -6.26431726 -2.16088705
 6 -2.44843522 -7.50188900 -2.69170478
 1 -2.37253201 -7.48580855 -3.75884221
 1 -1.86138603 -8.30831622 -2.30447291
 1 -3.47142473 -7.63761658 -2.40885885
 8 -3.80828757 0.25377252 5.84647183
 8 -1.61255008 0.44990887 6.69139592
 6 -2.05208177 0.52418830 8.05013331
 1 -2.58799171 -0.36728679 8.30088191
 1 -1.20365533 0.62349859 8.69450135
 1 -2.69339955 1.37204418 8.17171965

-C -H -N -O -F -S -P -Cl 0
6-31G(d)
****
-Ni
SDD
****

-Ni
SDD

--Link1--
%nprocshared=16
%mem=32GB
#p opt freq=noraman b3lyp/genecp empiricaldispersion=gd3bj

title

0 1
28 2.17202300 0.00040700 -0.00612300
 6 2.63868100 0.52419500 -1.67158800
 8 2.88928300 0.86164100 -2.74393800
 6 2.64358400 1.18103500 1.27822400
 8 2.89706800 1.94159100 2.10520400
 6 2.64425600 -1.70209900 0.37320600
 8 2.89821400 -2.79849400 0.61830000
15 -0.07583300 -0.00055300 -0.00089800
 6 -0.85428700 1.36411800 -0.94846300
 6 -0.25767000 2.63251800 -0.88496700
 6 -2.01647600 1.19100700 -1.71203300
 6 -0.82118600 3.71166400 -1.56302200
 1 0.65189400 2.76825100 -0.30721400
 6 -2.57376900 2.27183400 -2.39731000
 1 -2.48244700 0.21308200 -1.77359000
 6 -1.97984500 3.53247900 -2.32232500
 1 -0.35126000 4.68930000 -1.50629100
 1 -3.47210200 2.12691900 -2.99083100
 6 -2.59420515 4.71913901 -3.08027420
 6 -0.85372600 -1.50580200 -0.70450500
 6 -2.01951200 -2.07483100 -0.17439700
 6 -0.25431200 -2.09207000 -1.82946200
 6 -2.57744000 -3.21024200 -0.76407500
 1 -2.48760500 -1.63327000 0.69922000
 6 -0.81828500 -3.22068200 -2.42126300
 1 0.65783100 -1.66374900 -2.23449600
 6 -1.98038500 -3.78298700 -1.88802500
 1 -3.47856800 -3.64733700 -0.34314600
 1 -0.34606300 -3.66611600 -3.29213400
 6 -2.59526830 -5.03458279 -2.53263051
 6 -0.84673900 0.13993300 1.65808500
 6 -2.00431700 0.89318800 1.89532200
 6 -0.24907900 -0.55301700 2.72176200
 6 -2.55593600 0.94815300 3.17637100
 1 -2.47108400 1.43811900 1.08143100
 6 -0.80695100 -0.50341800 3.99775700
 1 0.65688800 -1.12569400 2.54619700
 6 -1.96093200 0.24933900 4.22765500
 1 -3.45070200 1.53882400 3.35179100
 1 -0.33624600 -1.04425600 4.81369500
 6 -2.56893944 0.31455226 5.63696622
 7 -3.05273850 5.60481364 -3.64597656
 7 -3.05419188 -5.96872236 -3.01373753
 7 -3.02273173 0.36322481 6.68881939

-C -H -N -O -F -S -P -Cl 0
6-31G(d)
****
-Ni
SDD
****

-Ni
SDD

--Link1--
%nprocshared=16
%mem=32GB
#p opt freq=noraman b3lyp/genecp empiricaldispersion=gd3bj

title

0 1
28 2.17202300 0.00040700 -0.00612300
 6 2.63868100 0.52419500 -1.67158800
 8 2.88928300 0.86164100 -2.74393800
 6 2.64358400 1.18103500 1.27822400
 8 2.89706800 1.94159100 2.10520400
 6 2.64425600 -1.70209900 0.37320600
 8 2.89821400 -2.79849400 0.61830000
15 -0.07583300 -0.00055300 -0.00089800
 6 -0.85428700 1.36411800 -0.94846300
 6 -0.25767000 2.63251800 -0.88496700
 6 -2.01647600 1.19100700 -1.71203300
 6 -0.82118600 3.71166400 -1.56302200
 1 0.65189400 2.76825100 -0.30721400
 6 -2.57376900 2.27183400 -2.39731000
 1 -2.48244700 0.21308200 -1.77359000
 6 -1.97984500 3.53247900 -2.32232500
 1 -0.35126000 4.68930000 -1.50629100
 1 -3.47210200 2.12691900 -2.99083100
 7 -2.57420980 4.68051723 -3.05560551
 6 -0.85372600 -1.50580200 -0.70450500
 6 -2.01951200 -2.07483100 -0.17439700
 6 -0.25431200 -2.09207000 -1.82946200
 6 -2.57744000 -3.21024200 -0.76407500
 1 -2.48760500 -1.63327000 0.69922000
 6 -0.81828500 -3.22068200 -2.42126300
 1 0.65783100 -1.66374900 -2.23449600
 6 -1.98038500 -3.78298700 -1.88802500
 1 -3.47856800 -3.64733700 -0.34314600
 1 -0.34606300 -3.66611600 -3.29213400
 7 -2.57525593 -4.99384759 -2.51165079
 6 -0.84673900 0.13993300 1.65808500
 6 -2.00431700 0.89318800 1.89532200
 6 -0.24907900 -0.55301700 2.72176200
 6 -2.55593600 0.94815300 3.17637100
 1 -2.47108400 1.43811900 1.08143100
 6 -0.80695100 -0.50341800 3.99775700
 1 0.65688800 -1.12569400 2.54619700
 6 -1.96093200 0.24933900 4.22765500
 1 -3.45070200 1.53882400 3.35179100
 1 -0.33624600 -1.04425600 4.81369500
 7 -2.54915084 0.31242978 5.59109786
 8 -3.80285057 4.82581331 -3.02506917
 8 -1.81622527 5.44438402 -3.66685075
 8 -3.72644993 -4.91981827 -2.95984004
 8 -1.89512127 -6.02679741 -2.55731559
 8 -3.77965638 0.24522844 5.70485926
 8 -1.78443465 0.42959693 6.55708687

-C -H -N -O -F -S -P -Cl 0
6-31G(d)
****
-Ni
SDD
****

-Ni
SDD

--Link1--
%nprocshared=16
%mem=32GB
#p opt freq=noraman b3lyp/genecp empiricaldispersion=gd3bj

title

0 1
28 2.17202300 0.00040700 -0.00612300
 6 2.63868100 0.52419500 -1.67158800
 8 2.88928300 0.86164100 -2.74393800
 6 2.64358400 1.18103500 1.27822400
 8 2.89706800 1.94159100 2.10520400
 6 2.64425600 -1.70209900 0.37320600
 8 2.89821400 -2.79849400 0.61830000
15 -0.07583300 -0.00055300 -0.00089800
 6 -0.85428700 1.36411800 -0.94846300
 6 -0.25767000 2.63251800 -0.88496700
 6 -2.01647600 1.19100700 -1.71203300
 6 -0.82118600 3.71166400 -1.56302200
 1 0.65189400 2.76825100 -0.30721400
 6 -2.57376900 2.27183400 -2.39731000
 1 -2.48244700 0.21308200 -1.77359000
 6 -1.97984500 3.53247900 -2.32232500
 1 -0.35126000 4.68930000 -1.50629100
 1 -3.47210200 2.12691900 -2.99083100
 9 -2.51822282 4.57237625 -2.98653318
 6 -0.85372600 -1.50580200 -0.70450500
 6 -2.01951200 -2.07483100 -0.17439700
 6 -0.25431200 -2.09207000 -1.82946200
 6 -2.57744000 -3.21024200 -0.76407500
 1 -2.48760500 -1.63327000 0.69922000
 6 -0.81828500 -3.22068200 -2.42126300
 1 0.65783100 -1.66374900 -2.23449600
 6 -1.98038500 -3.78298700 -1.88802500
 1 -3.47856800 -3.64733700 -0.34314600
 1 -0.34606300 -3.66611600 -3.29213400
 9 -2.51922130 -4.87978903 -2.45290756
 6 -0.84673900 0.13993300 1.65808500
 6 -2.00431700 0.89318800 1.89532200
 6 -0.24907900 -0.55301700 2.72176200
 6 -2.55593600 0.94815300 3.17637100
 1 -2.47108400 1.43811900 1.08143100
 6 -0.80695100 -0.50341800 3.99775700
 1 0.65688800 -1.12569400 2.54619700
 6 -1.96093200 0.24933900 4.22765500
 1 -3.45070200 1.53882400 3.35179100
 1 -0.33624600 -1.04425600 4.81369500
 9 -2.49374275 0.30648686 5.46266646

-C -H -N -O -F -S -P -Cl 0
6-31G(d)
****
-Ni
SDD
****

-Ni
SDD

--Link1--
%nprocshared=16
%mem=32GB
#p opt freq=noraman b3lyp/genecp empiricaldispersion=gd3bj

title

0 1
28 2.17202300 0.00040700 -0.00612300
 6 2.63868100 0.52419500 -1.67158800
 8 2.88928300 0.86164100 -2.74393800
 6 2.64358400 1.18103500 1.27822400
 8 2.89706800 1.94159100 2.10520400
 6 2.64425600 -1.70209900 0.37320600
 8 2.89821400 -2.79849400 0.61830000
15 -0.07583300 -0.00055300 -0.00089800
 6 -0.85428700 1.36411800 -0.94846300
 6 -0.25767000 2.63251800 -0.88496700
 6 -2.01647600 1.19100700 -1.71203300
 6 -0.82118600 3.71166400 -1.56302200
 1 0.65189400 2.76825100 -0.30721400
 6 -2.57376900 2.27183400 -2.39731000
 1 -2.48244700 0.21308200 -1.77359000
 6 -1.97984500 3.53247900 -2.32232500
 1 -0.35126000 4.68930000 -1.50629100
 1 -3.47210200 2.12691900 -2.99083100
17 -2.69818096 4.91997226 -3.20855138
 6 -0.85372600 -1.50580200 -0.70450500
 6 -2.01951200 -2.07483100 -0.17439700
 6 -0.25431200 -2.09207000 -1.82946200
 6 -2.57744000 -3.21024200 -0.76407500
 1 -2.48760500 -1.63327000 0.69922000
 6 -0.81828500 -3.22068200 -2.42126300
 1 0.65783100 -1.66374900 -2.23449600
 6 -1.98038500 -3.78298700 -1.88802500
 1 -3.47856800 -3.64733700 -0.34314600
 1 -0.34606300 -3.66611600 -3.29213400
17 -2.69933260 -5.24640582 -2.64172507
 6 -0.84673900 0.13993300 1.65808500
 6 -2.00431700 0.89318800 1.89532200
 6 -0.24907900 -0.55301700 2.72176200
 6 -2.55593600 0.94815300 3.17637100
 1 -2.47108400 1.43811900 1.08143100
 6 -0.80695100 -0.50341800 3.99775700
 1 0.65688800 -1.12569400 2.54619700
 6 -1.96093200 0.24933900 4.22765500
 1 -3.45070200 1.53882400 3.35179100
 1 -0.33624600 -1.04425600 4.81369500
17 -2.67184019 0.32558912 5.87548168

-C -H -N -O -F -S -P -Cl 0
6-31G(d)
****
-Ni
SDD
****

-Ni
SDD

--Link1--
%nprocshared=16
%mem=32GB
#p opt freq=noraman b3lyp/genecp empiricaldispersion=gd3bj

title

0 1
28 2.17202300 0.00040700 -0.00612300
 6 2.63868100 0.52419500 -1.67158800
 8 2.88928300 0.86164100 -2.74393800
 6 2.64358400 1.18103500 1.27822400
 8 2.89706800 1.94159100 2.10520400
 6 2.64425600 -1.70209900 0.37320600
 8 2.89821400 -2.79849400 0.61830000
15 -0.07583300 -0.00055300 -0.00089800
 6 -0.85428700 1.36411800 -0.94846300
 6 -0.25767000 2.63251800 -0.88496700
 6 -2.01647600 1.19100700 -1.71203300
 6 -0.82118600 3.71166400 -1.56302200
 1 0.65189400 2.76825100 -0.30721400
 6 -2.57376900 2.27183400 -2.39731000
 1 -2.48244700 0.21308200 -1.77359000
 6 -1.97984500 3.53247900 -2.32232500
 1 -0.35126000 4.68930000 -1.50629100
 1 -3.47210200 2.12691900 -2.99083100
16 -2.71017817 4.94314533 -3.22335259
 6 -0.85372600 -1.50580200 -0.70450500
 6 -2.01951200 -2.07483100 -0.17439700
 6 -0.25431200 -2.09207000 -1.82946200
 6 -2.57744000 -3.21024200 -0.76407500
 1 -2.48760500 -1.63327000 0.69922000
 6 -0.81828500 -3.22068200 -2.42126300
 1 0.65783100 -1.66374900 -2.23449600
 6 -1.98038500 -3.78298700 -1.88802500
 1 -3.47856800 -3.64733700 -0.34314600
 1 -0.34606300 -3.66611600 -3.29213400
16 -2.71134002 -5.27084694 -2.65431291
 6 -0.84673900 0.13993300 1.65808500
 6 -2.00431700 0.89318800 1.89532200
 6 -0.24907900 -0.55301700 2.72176200
 6 -2.55593600 0.94815300 3.17637100
 1 -2.47108400 1.43811900 1.08143100
 6 -0.80695100 -0.50341800 3.99775700
 1 0.65688800 -1.12569400 2.54619700
 6 -1.96093200 0.24933900 4.22765500
 1 -3.45070200 1.53882400 3.35179100
 1 -0.33624600 -1.04425600 4.81369500
16 -2.68371335 0.32686260 5.90300269
 9 -2.64714876 5.82140372 -1.89942303
 9 -3.34603029 6.17131789 -4.00781689
 9 -1.25421822 5.44149696 -3.62326042
 9 -4.16613812 4.44479370 -2.82344476
 9 -2.77320758 4.06488694 -4.54728216
 9 -3.04897627 -5.84794477 -1.21172501
 9 -3.34773326 -6.56622625 -3.32146811
 9 -4.12876917 -4.55178469 -2.69840464
 9 -1.29391087 -5.98990919 -2.61022118
 9 -2.37370377 -4.69374910 -4.09690081
 9 -1.30465481 -0.16767915 6.52084247
 9 -3.31299099 0.39435724 7.36161646
 9 -2.20381003 1.83648935 6.04018823
 9 -3.16361668 -1.18276415 5.76581715
 9 -4.06277189 0.82140435 5.28516291

-C -H -N -O -F -S -P -Cl 0
6-31G(d)
****
-Ni
SDD
****

-Ni
SDD

