%nprocshared=16
%mem=32GB
#p opt freq=noraman b3lyp/genecp empiricaldispersion=gd3bj

Title Card Required

0 1
 Ni                 0.90579783   -0.53999331   -0.00200783
 C                  1.54580927    0.36813325   -1.56792337
 O                  1.98581713    0.99247027   -2.64449031
 C                  1.54577619   -2.35019092   -0.00551770
 O                  1.98576131   -3.59470178   -0.00793074
 C                 -1.01420216   -0.53997000   -0.00200841
 O                 -2.33420216   -0.53994776   -0.00199803
 P                  1.63914308    0.49360214    1.79629281
 C                  3.45914305    0.49329207    1.79645898
 C                  4.15643104   -0.55415103    2.39905655
 C                  4.15688201    1.54011876    1.19407840
 C                  5.55114288   -0.55434484    2.39981709
 H                  3.60605406   -1.37891324    2.87455025
 C                  5.55201984    1.53957840    1.19388949
 H                  3.60746874    2.36565713    0.71893581
 C                  6.24920776    0.49265938    1.79673821
 H                  6.10082175   -1.37959997    2.87532064
 H                  6.10188886    2.36488147    0.71850214
 H                  7.34888759    0.49226044    1.79741134
 C                  1.03276847    2.20961491    1.79945447
 C                  0.18115605    2.64660683    2.81447456
 C                  1.41949257    3.08790685    0.78723125
 C                 -0.28411815    3.96142095    2.81682002
 H                 -0.12415969    1.95371669    3.61192509
 C                  0.95495329    4.40343170    0.78997391
 H                  2.09083264    2.74370531   -0.01274177
 C                  0.10316372    4.84025581    1.80445715
 H                 -0.95587251    4.30575832    3.61649142
 H                  1.26036491    5.09581789   -0.00802316
 H                 -0.26376954    5.87691002    1.80654833
 C                  1.03219426   -0.36703524    3.28065006
 C                  1.76094017   -0.30675414    4.46882808
 C                 -0.16153640   -1.08678190    3.23045049
 C                  1.29632960   -0.96666047    5.60631760
 H                  2.70240923    0.26012644    4.50786910
 C                 -0.62693036   -1.74612918    4.36846610
 H                 -0.73611869   -1.13424985    2.29411134
 C                  0.10182942   -1.68629969    5.55626517
 H                  1.87100081   -0.91971158    6.54271778
 H                 -1.56837771   -2.31320042    4.32870048
 H                 -0.26433019   -2.20648285    6.45327853

-C -H -N -O -F -S -P -Cl 0
6-31G(d)
****
-Ni
SDD
****

-Ni
SDD

