%nprocshared=16
%mem=32GB
#p opt freq=noraman b3lyp/genecp empiricaldispersion=gd3bj

title

0 1
 6          1.38206090    2.09031660    0.00029410
 6         -0.02285010    1.54211260    0.00029510
 1          1.44893090    3.20249860    0.00028910
 1         -0.56534610    1.90991060   -0.88062190
 6          0.00000000    0.00000000    0.00000000
 1         -0.56522210    1.90958060    0.88143110
 8          2.38573090    1.41377460    0.00029810
 6         -1.41099690   -0.53146624   -0.03056004
 1         -2.05221454   -0.20191335    0.81894289
 1          0.49339313   -0.30876681    0.93103078
 1          0.56441437   -0.36518936   -0.86090239
 8         -1.85442278   -1.26014431   -0.88931747

