%nprocshared=16
%mem=32GB
#p opt freq=noraman b3lyp/genecp empiricaldispersion=gd3bj

title

0 1
 6          1.38206090    2.09031660    0.00029410
 6         -0.02285010    1.54211260    0.00029510
 1          1.44893090    3.20249860    0.00028910
 1         -0.56534610    1.90991060   -0.88062190
 6          0.00000000    0.00000000    0.00000000
 1         -0.56522210    1.90958060    0.88143110
 8          2.38573090    1.41377460    0.00029810
 6         -1.41064671   -0.53147527    0.04373157
 1         -2.00654110   -0.20125696    0.92536989
 1          0.54144749   -0.30804963    0.90417481
 1          0.51860090   -0.36586282   -0.88897540
 8         -1.89838188   -1.26081466   -0.79007956

