%nprocshared=4
%mem=3GB
#t b3lyp empiricaldispersion=gd3bj gen NMR pop=none int=finegrid nosymm

title

0 1
 6          0.59509999   -1.21239996    0.00460000
 1          1.58609998   -0.88580000    0.31959999
 1          0.66439998   -1.30900002   -1.07889998
 1          0.35540000   -2.21000004    0.37279999
 6         -0.45060000   -0.13630000    0.30280000
 8         -1.52620006   -0.50290000    0.69279999
 6         -0.33640000    1.26820004   -0.06850000
 1          0.58450001    1.76250005    0.24100000
 1         -0.38839999    1.29700005   -1.15690005
 1         -1.08399999    1.92879999    0.37059999
 8          2.20810008    2.73950005   -2.01079988
 1          2.68409991    2.08890009   -1.41910005
 1          2.60700011    2.71029997   -2.92729998
 8          3.51699996    0.89609998   -0.47130001
 1          3.15730000    1.15160000    0.42620000
 1          3.44260001   -0.09400000   -0.59060001
 8          1.67139995    0.17690000    3.54629993
 1          1.37880003   -0.74510002    3.79999995
 1          1.04729998    0.84700000    3.94799995
 8         -4.29230022    0.36210001    0.34750000
 1         -3.39549994    0.02130000    0.62940001
 1         -4.50799990    1.19449997    0.85799998
 8          0.32330000    4.30919981    1.04149997
 1         -0.44540000    3.72160006    1.29400003
 1          1.14950001    3.99710011    1.51059997
 8         -1.63250005   -1.30719995   -2.66939998
 1         -0.81050003   -1.06210005   -3.18350005
 1         -2.23799992   -0.51349998   -2.61080003
 8          3.42820001   -1.82079995   -1.76800001
 1          4.26450014   -2.34960008   -1.91310000
 1          2.88179994   -2.25149989   -1.04980004
 8         -2.07999992   -2.76430011    2.42249990
 1         -1.75199997   -1.98179996    1.89320004
 1         -1.65160000   -2.75860000    3.32599998
 8          2.81480002    2.42569995    1.82219994
 1          3.49149990    3.15339994    1.93410003
 1          2.82340002    1.83550000    2.62940001
 8          0.31349999    0.04220000   -3.76650000
 1          1.26870000   -0.18790001   -3.95269990
 1          0.15549999    1.00670004   -3.97849989

@/n/jacobsen_lab/ekwan/solvent/basis/pcSseg-1.bas

