%chk=test_diastereotopicity.chk
# hf/3-21g geom=connectivity

Title Card Required

0 1
 C                  0.22546419   -0.87525659   -0.01145774
 C                  1.60269019   -0.87525659   -0.01145774
 C                  2.12806519    0.45701341   -0.01145774
 C                  1.12160519    1.39706641   -0.01064774
 S                 -0.38903081    0.67990941   -0.01065574
 H                 -0.40921081   -1.75920959   -0.01196874
 H                  2.23434019   -1.76539859   -0.01171174
 H                  3.19727419    0.67643741   -0.01202974
 C                  2.82461429    3.24747525   -0.00681744
 H                  3.28064785    2.83011616   -0.88017005
 F                  3.39625145    2.71840999    1.09582525
 C                  1.31889224    2.92437679   -0.00973212
 C                  0.73358669    3.54974899   -1.25988018
 C                  0.64097017    3.45346734    1.23776690
 C                 -0.86002220    3.25664225    1.17589624
 H                  1.05144306    2.92871031    2.13930682
 H                  0.86910595    4.54596643    1.35074344
 C                 -0.76731440    3.35220212   -1.32213438
 H                  0.96622626    4.64705637   -1.27180555
 H                  1.21023943    3.09426640   -2.16640060
 C                 -1.44592591    3.87982469   -0.07451987
 H                 -1.33641062    3.71356497    2.08185492
 H                 -0.99469657    2.25959549   -1.43605663
 H                 -1.17787341    3.87732195   -2.22337595
 H                 -1.09290506    2.15939510    1.18978566
 H                 -1.32548170    4.99410032   -0.02730828
 H                 -2.54433233    3.66143873   -0.12357842
 Br                 3.06929799    5.14173589   -0.00426241

 1 2 2.0 5 1.5 6 1.0
 2 3 1.5 7 1.0
 3 4 2.0 8 1.0
 4 5 1.5 12 1.0
 5
 6
 7
 8
 9 10 1.0 11 1.0 12 1.0 28 1.0
 10
 11
 12 13 1.0 14 1.0
 13 18 1.0 19 1.0 20 1.0
 14 15 1.0 16 1.0 17 1.0
 15 21 1.0 22 1.0 25 1.0
 16
 17
 18 21 1.0 23 1.0 24 1.0
 19
 20
 21 26 1.0 27 1.0
 22
 23
 24
 25
 26
 27
 28

