%chk=test_diastereotopicity.chk
# hf/3-21g geom=connectivity

Title Card Required

0 1
 C                 -0.90837808    4.38235267    2.91368624
 C                  0.37532443    4.81597120    3.16033230
 C                  1.28872301    4.34896594    2.16104688
 C                  0.64943237    3.58651202    1.20887382
 S                 -0.98669588    3.45131224    1.52690000
 H                 -1.78098808    4.60171200    3.52574736
 H                  0.68103408    5.43718108    4.00411810
 H                  2.35520742    4.58097641    2.17276279
 C                  1.31889224    2.92437679   -0.00973212
 H                  1.18145914    1.86440444    0.03997460
 H                  0.87528587    3.29980387   -0.90815735
 C                  2.82461429    3.24747525   -0.00681744
 H                  3.28064785    2.83011616   -0.88017005
 F                  3.39625145    2.71840999    1.09582525
 C                  3.02189853    4.77478487   -0.00475736
 C                  3.98454174    5.28399747    1.08869217
 C                  3.98820775    5.28636982   -1.09377229
 H                  2.03175844    5.27648471   -0.00556946
 C                  4.95071529    5.79581611   -0.00033755
 H                  4.40770326    4.48197924    1.72886177
 H                  3.55925452    6.08436157    1.72955400
 H                  4.41348205    4.48550654   -1.73413482
 H                  3.56528276    6.08807671   -1.73451604
 H                  5.94089466    5.29412223    0.00081120
 H                  5.09271793    6.89666571    0.00094475

 1 2 2.0 5 1.5 6 1.0
 2 3 1.5 7 1.0
 3 4 2.0 8 1.0
 4 5 1.5 9 1.0
 5
 6
 7
 8
 9 10 1.0 11 1.0 12 1.0
 10
 11
 12 13 1.0 14 1.0 15 1.0
 13
 14
 15 16 1.0 17 1.0 18 1.0
 16 19 1.0 20 1.0 21 1.0
 17 19 1.0 22 1.0 23 1.0
 18
 19 24 1.0 25 1.0
 20
 21
 22
 23
 24
 25

