%chk=test_diastereotopicity.chk
# hf/3-21g geom=connectivity

Title Card Required

0 1
 C                  0.22546419   -0.87525659   -0.01145774
 C                  1.60269019   -0.87525659   -0.01145774
 C                  2.12806519    0.45701341   -0.01145774
 C                  1.12160519    1.39706641   -0.01064774
 S                 -0.38903081    0.67990941   -0.01065574
 H                 -0.40921081   -1.75920959   -0.01196874
 H                  2.23434019   -1.76539859   -0.01171174
 H                  3.19727419    0.67643741   -0.01202974
 C                  1.31889224    2.92437679   -0.00973212
 C                  2.82461429    3.24747525   -0.00681744
 H                  3.28064785    2.83011616   -0.88017005
 F                  3.39625145    2.71840999    1.09582525
 C                  3.02189853    4.77478487   -0.00475736
 C                  3.98454174    5.28399747    1.08869217
 C                  3.98820775    5.28636982   -1.09377229
 H                  2.03175844    5.27648471   -0.00556946
 C                  4.95071529    5.79581611   -0.00033755
 H                  4.40770326    4.48197924    1.72886177
 H                  3.55925452    6.08436157    1.72955400
 H                  4.41348205    4.48550654   -1.73413482
 H                  3.56528276    6.08807671   -1.73451604
 H                  5.94089466    5.29412223    0.00081120
 H                  5.09271793    6.89666571    0.00094475
 C                  0.66701175    3.52693436   -1.26813436
 H                  0.73894462    4.59386765   -1.23099924
 H                  1.17219790    3.16550610   -2.13937288
 H                 -0.36303708    3.24008927   -1.30837500
 C                  0.66233771    3.52603050    1.24667107
 H                 -0.39896600    3.40313607    1.18809298
 H                  1.03191202    3.02500848    2.11689619
 H                  0.89788981    4.56797892    1.30797911

 1 2 2.0 5 1.5 6 1.0
 2 3 1.5 7 1.0
 3 4 2.0 8 1.0
 4 5 1.5 9 1.0
 5
 6
 7
 8
 9 10 1.0 24 1.0 28 1.0
 10 11 1.0 12 1.0 13 1.0
 11
 12
 13 14 1.0 15 1.0 16 1.0
 14 17 1.0 18 1.0 19 1.0
 15 17 1.0 20 1.0 21 1.0
 16
 17 22 1.0 23 1.0
 18
 19
 20
 21
 22
 23
 24 25 1.0 26 1.0 27 1.0
 25
 26
 27
 28 29 1.0 30 1.0 31 1.0
 29
 30
 31

