%mem=32GB
%nprocshared=16
#p opt freq=noraman b3lyp/6-31g(d)

title

0 1
 N          2.99795008   -0.51204002   -0.44439301
 H          2.81012893   -1.15784502   -1.20341694
 C          1.87682199    0.25227800    0.02265600
 H          1.90493298    0.31776801    1.11714494
 C          1.95422995    1.68371403   -0.50597101
 C          0.58473599   -0.42608801   -0.44550100
 H          1.84175897    1.75332499   -1.59160101
 O          0.60476500   -1.36638200   -1.22836101
 N         -0.55857801    0.08892300    0.05272000
 H         -0.55271399    0.91927302    0.63692498
 C         -1.84047198   -0.39012101   -0.40092599
 H         -1.83445597   -0.54979199   -1.48485899
 C         -2.17024899   -1.72499800    0.26784700
 C         -2.88515496    0.65714300   -0.03107700
 H         -1.32694399   -2.41792297    0.23473500
 O         -2.62827992    1.65508103    0.59776902
 O         -4.08663988    0.32302299   -0.47502300
 C         -5.14274311    1.23473895   -0.13373600
 H         -6.04707623    0.80768597   -0.56305999
 H         -5.23291683    1.31488001    0.95117003
 H         -4.94177914    2.21916699   -0.56086397
 F         -3.24098802   -2.29645801   -0.33086801
 F         -2.50076389   -1.49216104    1.56785798
 F          0.97554898    2.43189001    0.08422500
 F          3.14157295    2.22407198   -0.15293799
 C          4.11077881   -0.68283600    0.33488700
 O          4.26039886   -0.09717200    1.39343202
 C          5.11586714   -1.67012298   -0.21199501
 H          4.90989208   -2.65781903    0.21370500
 H          5.07397604   -1.74515104   -1.30103600
 H          6.11641216   -1.36649501    0.09872700

--Link1--
%mem=32GB
%nprocshared=16
#p opt freq=noraman b3lyp/6-31g(d)

title

0 1
 N          2.99787593   -0.51206398   -0.44431600
 H          2.80991793   -1.15793002   -1.20325696
 C          1.87680602    0.25250599    0.02252100
 H          1.90476406    0.31802899    1.11700904
 C          1.95458198    1.68395996   -0.50614202
 C          0.58459401   -0.42556599   -0.44586900
 H          1.84214902    1.75364101   -1.59177697
 O          0.60452598   -1.36606002   -1.22851598
 N         -0.55868500    0.08920700    0.05266900
 H         -0.55283999    0.91956902    0.63687098
 C         -1.84057999   -0.39000201   -0.40081900
 H         -1.83468199   -0.54962498   -1.48475695
 C         -2.16988397   -1.72502995    0.26788801
 C         -2.88543391    0.65706998   -0.03069900
 H         -1.32614303   -2.41745305    0.23528600
 O         -2.62870502    1.65476406    0.59860098
 O         -4.08683205    0.32319000   -0.47504100
 C         -5.14300489    1.23478103   -0.13361000
 H         -6.04723692    0.80794603   -0.56336099
 H         -5.23344803    1.31441498    0.95130903
 H         -4.94190598    2.21940207   -0.56022602
 F         -3.23993897   -2.29722691   -0.33135301
 F         -2.50124598   -1.49220598    1.56768799
 F          0.97606701    2.43241000    0.08396200
 F          3.14204693    2.22405601   -0.15310501
 C          4.11060619   -0.68312901    0.33507100
 O          4.26047087   -0.09716100    1.39340901
 C          5.11540318   -1.67082703   -0.21169500
 H          4.90930891   -2.65842009    0.21416201
 H          5.07313681   -1.74598801   -1.30072904
 H          6.11606789   -1.36732697    0.09877200

--Link1--
%mem=32GB
%nprocshared=16
#p opt freq=noraman b3lyp/6-31g(d)

title

0 1
 N          2.99787593   -0.51206398   -0.44431600
 H          2.80991793   -1.15793002   -1.20325696
 C          1.87680602    0.25250599    0.02252100
 H          1.90476406    0.31802899    1.11700904
 C          1.95458198    1.68395996   -0.50614202
 C          0.58459401   -0.42556599   -0.44586900
 H          1.84214902    1.75364101   -1.59177697
 O          0.60452598   -1.36606002   -1.22851598
 N         -0.55868500    0.08920700    0.05266900
 H         -0.55283999    0.91956902    0.63687098
 C         -1.84057999   -0.39000201   -0.40081900
 H         -1.83468199   -0.54962498   -1.48475695
 C         -2.16988397   -1.72502995    0.26788801
 C         -2.88543391    0.65706998   -0.03069900
 H         -1.32614303   -2.41745305    0.23528600
 O         -2.62870502    1.65476406    0.59860098
 O         -4.08683205    0.32319000   -0.47504100
 C         -5.14300489    1.23478103   -0.13361000
 H         -6.04723692    0.80794603   -0.56336099
 H         -5.23344803    1.31441498    0.95130903
 H         -4.94190598    2.21940207   -0.56022602
 F         -3.23993897   -2.29722691   -0.33135301
 F         -2.50124598   -1.49220598    1.56768799
 F          0.97606701    2.43241000    0.08396200
 F          3.14204693    2.22405601   -0.15310501
 C          4.11060619   -0.68312901    0.33507100
 O          4.26047087   -0.09716100    1.39340901
 C          5.11540318   -1.67082703   -0.21169500
 H          4.90930891   -2.65842009    0.21416201
 H          5.07313681   -1.74598801   -1.30072904
 H          6.11606789   -1.36732697    0.09877200

