%mem=32GB
%nprocshared=16
#p opt freq=noraman b3lyp/6-31g(d)

title

0 1
 N          2.99795000   -0.51204000   -0.44439300
 H          2.81012900   -1.15784500   -1.20341700
 C          1.87682200    0.25227800    0.02265600
 H          1.90493300    0.31776800    1.11714500
 C          1.95423000    1.68371400   -0.50597100
 C          0.58473600   -0.42608800   -0.44550100
 H          1.84175900    1.75332500   -1.59160100
 O          0.60476500   -1.36638200   -1.22836100
 N         -0.55857800    0.08892300    0.05272000
 H         -0.55271400    0.91927300    0.63692500
 C         -1.84047200   -0.39012100   -0.40092600
 H         -1.83445600   -0.54979200   -1.48485900
 C         -2.17024900   -1.72499800    0.26784700
 C         -2.88515500    0.65714300   -0.03107700
 H         -1.32694400   -2.41792300    0.23473500
 O         -2.62828000    1.65508100    0.59776900
 O         -4.08664000    0.32302300   -0.47502300
 C         -5.14274300    1.23473900   -0.13373600
 H         -6.04707600    0.80768600   -0.56306000
 H         -5.23291700    1.31488000    0.95117000
 H         -4.94177900    2.21916700   -0.56086400
 F         -3.24098800   -2.29645800   -0.33086800
 F         -2.50076400   -1.49216100    1.56785800
 F          0.97554900    2.43189000    0.08422500
 F          3.14157300    2.22407200   -0.15293800
 C          4.11077900   -0.68283600    0.33488700
 O          4.26039900   -0.09717200    1.39343200
 C          5.11586700   -1.67012300   -0.21199500
 H          4.90989200   -2.65781900    0.21370500
 H          5.07397600   -1.74515100   -1.30103600
 H          6.11641200   -1.36649500    0.09872700

--Link1--
%mem=32GB
%nprocshared=16
#p opt freq=noraman b3lyp/6-31g(d)

title

0 1
 N          2.99787600   -0.51206400   -0.44431600
 H          2.80991800   -1.15793000   -1.20325700
 C          1.87680600    0.25250600    0.02252100
 H          1.90476400    0.31802900    1.11700900
 C          1.95458200    1.68396000   -0.50614200
 C          0.58459400   -0.42556600   -0.44586900
 H          1.84214900    1.75364100   -1.59177700
 O          0.60452600   -1.36606000   -1.22851600
 N         -0.55868500    0.08920700    0.05266900
 H         -0.55284000    0.91956900    0.63687100
 C         -1.84058000   -0.39000200   -0.40081900
 H         -1.83468200   -0.54962500   -1.48475700
 C         -2.16988400   -1.72503000    0.26788800
 C         -2.88543400    0.65707000   -0.03069900
 H         -1.32614300   -2.41745300    0.23528600
 O         -2.62870500    1.65476400    0.59860100
 O         -4.08683200    0.32319000   -0.47504100
 C         -5.14300500    1.23478100   -0.13361000
 H         -6.04723700    0.80794600   -0.56336100
 H         -5.23344800    1.31441500    0.95130900
 H         -4.94190600    2.21940200   -0.56022600
 F         -3.23993900   -2.29722700   -0.33135300
 F         -2.50124600   -1.49220600    1.56768800
 F          0.97606700    2.43241000    0.08396200
 F          3.14204700    2.22405600   -0.15310500
 C          4.11060600   -0.68312900    0.33507100
 O          4.26047100   -0.09716100    1.39340900
 C          5.11540300   -1.67082700   -0.21169500
 H          4.90930900   -2.65842000    0.21416200
 H          5.07313700   -1.74598800   -1.30072900
 H          6.11606800   -1.36732700    0.09877200

--Link1--
%mem=32GB
%nprocshared=16
#p opt freq=noraman b3lyp/6-31g(d)

title

0 1
 N          2.99787600   -0.51206400   -0.44431600
 H          2.80991800   -1.15793000   -1.20325700
 C          1.87680600    0.25250600    0.02252100
 H          1.90476400    0.31802900    1.11700900
 C          1.95458200    1.68396000   -0.50614200
 C          0.58459400   -0.42556600   -0.44586900
 H          1.84214900    1.75364100   -1.59177700
 O          0.60452600   -1.36606000   -1.22851600
 N         -0.55868500    0.08920700    0.05266900
 H         -0.55284000    0.91956900    0.63687100
 C         -1.84058000   -0.39000200   -0.40081900
 H         -1.83468200   -0.54962500   -1.48475700
 C         -2.16988400   -1.72503000    0.26788800
 C         -2.88543400    0.65707000   -0.03069900
 H         -1.32614300   -2.41745300    0.23528600
 O         -2.62870500    1.65476400    0.59860100
 O         -4.08683200    0.32319000   -0.47504100
 C         -5.14300500    1.23478100   -0.13361000
 H         -6.04723700    0.80794600   -0.56336100
 H         -5.23344800    1.31441500    0.95130900
 H         -4.94190600    2.21940200   -0.56022600
 F         -3.23993900   -2.29722700   -0.33135300
 F         -2.50124600   -1.49220600    1.56768800
 F          0.97606700    2.43241000    0.08396200
 F          3.14204700    2.22405600   -0.15310500
 C          4.11060600   -0.68312900    0.33507100
 O          4.26047100   -0.09716100    1.39340900
 C          5.11540300   -1.67082700   -0.21169500
 H          4.90930900   -2.65842000    0.21416200
 H          5.07313700   -1.74598800   -1.30072900
 H          6.11606800   -1.36732700    0.09877200

