%nprocshared=18
%mem=16GB
%chk=checkpoint.chk
#p b3lyp 6-31g* opt freq=noraman

Title Card Required

0 1
 C                 -3.65659770    2.09062000    0.00000000
 H                 -3.29994328    1.08181000    0.00000000
 H                 -3.29992486    2.59501819   -0.87365150
 H                 -4.72659770    2.09063318    0.00000000
 C                 -3.14325548    2.81657628    1.25740497
 H                 -3.49831183    3.82594937    1.25642745
 H                 -3.50152459    2.31330785    2.13105486
 H                 -2.07325729    2.81486959    1.25838372

--Link1--
%nprocshared=18
%mem=16GB
%chk=checkpoint.chk
#p b3lyp 6-31g* NMR geom=allcheck guess=read

--Link1--
%nprocshared=18
%mem=16GB
%chk=checkpoint.chk
#p b3lyp 6-31g* NMR

Title Card Required

0 1
 C                 -3.65659770    2.09062000    0.00000000
 H                 -3.29994328    1.08181000    0.00000000
 H                 -3.29992486    2.59501819    0.87365150
 H                 -3.29992486    2.59501819   -0.87365150
 H                 -4.72659770    2.09063318    0.00000000

