%mem=1GB
%chk=test.chk
#p opt freq=noraman m062x/6-31g(d) scrf=(smd,solvent=diethylether)

title

0 1
 7          2.99787593   -0.51206398   -0.44431600
 1          2.80991793   -1.15793002   -1.20325696
 6          1.87680602    0.25250599    0.02252100
 1          1.90476406    0.31802899    1.11700904
 6          1.95458198    1.68395996   -0.50614202
 6          0.58459401   -0.42556599   -0.44586900
 1          1.84214902    1.75364101   -1.59177697
 8          0.60452598   -1.36606002   -1.22851598
 7         -0.55868500    0.08920700    0.05266900
 1         -0.55283999    0.91956902    0.63687098
 6         -1.84057999   -0.39000201   -0.40081900
 1         -1.83468199   -0.54962498   -1.48475695
 6         -2.16988397   -1.72502995    0.26788801
 6         -2.88543391    0.65706998   -0.03069900
 1         -1.32614303   -2.41745305    0.23528600
 8         -2.62870502    1.65476406    0.59860098
 8         -4.08683205    0.32319000   -0.47504100
 6         -5.14300489    1.23478103   -0.13361000
 1         -6.04723692    0.80794603   -0.56336099
 1         -5.23344803    1.31441498    0.95130903
 1         -4.94190598    2.21940207   -0.56022602
 9         -3.23993897   -2.29722691   -0.33135301
 9         -2.50124598   -1.49220598    1.56768799
 9          0.97606701    2.43241000    0.08396200
 9          3.14204693    2.22405601   -0.15310501
 6          4.11060619   -0.68312901    0.33507100
 8          4.26047087   -0.09716100    1.39340901
 6          5.11540318   -1.67082703   -0.21169500
 1          4.90930891   -2.65842009    0.21416201
 1          5.07313681   -1.74598801   -1.30072904
 1          6.11606789   -1.36732697    0.09877200

