%nprocshared=16
%mem=32GB
#p opt=modredundant 6-31g(d) scrf=(smd,solvent=tetrahydrofuran) m062x

title

0 1
 C                  0.75836200   -1.28692900    0.57447300
 C                  0.30196500   -0.00924800   -0.10026500
 H                  0.58434000    0.00122600   -1.15398800
 H                  0.39207000   -2.17312700    0.05105400
 H                  1.85488600   -1.31067100    0.57459500
 H                  0.41227900   -1.32245300    1.61184100
 C                  0.78163300    1.24293800    0.60542600
 H                  0.42774400    2.14818000    0.10665800
 H                  0.44025900    1.25730500    1.64485200
 H                  1.87840300    1.24846700    0.60080700
 Br                -1.68263800    0.00951500   -0.15979000
 N                  4.28837300    0.00841000   -0.49180700
 H                  4.21351103    0.89456359   -0.03450239
 H                  4.25979194   -0.72220867    0.19038028
 H                  5.15297886   -0.03644881   -0.99225120

B 2 12 S 250 -0.020000

