%chk=checkpoint.chk
%nprocshared=18
%mem=16GB
#p b3lyp 6-31g* opt freq=noraman

Title Card Required

0 1
 C                 -3.65659770    2.09062000    0.00000000
 H                 -3.29994328    1.08181000    0.00000000
 H                 -3.29992486    2.59501819    0.87365150
 H                 -3.29992486    2.59501819   -0.87365150
 H                 -4.72659770    2.09063318    0.00000000

--Link1--
%chk=checkpoint.chk
%nprocshared=18
%mem=16GB
#p b3lyp 6-31g* NMR geom=allcheck guess=read


