%mem=32GB
%nprocshared=16
#p sp hf/sto-3g

title

0 1
 6          0.00000000    0.00243584   -0.00822321
 1          0.57417619    0.57646316    0.67574662
 1         -0.63788247   -0.65552473    0.76005989
 1         -0.61897093    0.64186412   -0.69135213
 1          0.59476799   -0.59180391   -0.64654410

