%nprocshared=4
%mem=3GB
#p nmr=giao tpsstpss nosymm pop=none int=finegrid midix

MD frame from t=0 picoseconds

0 1
 C                 10.00000000   10.00000000   10.00000000
 C                  9.69416714   10.29285145   11.50009823
 C                 10.48428535    9.22971439   12.37057304
 C                 10.05397034   11.72221851   11.94797897
 C                 11.45099258   12.06606770   11.53690434
 C                 12.51768017   11.48092175   12.33961868
 C                 13.83716202   11.61248684   11.93849850
 C                 14.18557072   12.31550503   10.73519611
 C                 13.14492226   12.98837948   10.04085350
 C                 11.77317715   12.83813190   10.41629887
 C                 15.66087532   12.50522137   10.38030338
 C                 15.91904068   13.00487614    9.00295258
 C                 16.21308136   13.46893978   11.37376308
 O                 17.43125153   13.56806087   11.37200069
 O                 15.39363384   14.23132610   12.15346909
 H                  9.60746574   10.87057018    9.47749138
 H                  9.54279423    9.08933926    9.59333324
 H                 11.08343887    9.97624683    9.80258083
 H                  8.60594845   10.12172413   11.67768955
 H                 10.05360222    8.22212696   12.25513268
 H                 10.42849636    9.43071651   13.43134022
 H                 11.59447765    9.16519451   12.14018345
 H                  9.84386253   11.80183697   13.04067612
 H                  9.38842773   12.40842533   11.41947365
 H                 12.15808678   11.06006813   13.24534225
 H                 14.58283329   11.17515564   12.60594177
 H                 13.48918343   13.50845623    9.14384651
 H                 10.98383045   13.31309795    9.84677792
 H                 16.21188545   11.55093765   10.52592182
 H                 15.36497021   12.37718773    8.27417755
 H                 16.99165154   12.90240765    8.74369526
 H                 15.69060230   14.10348797    8.87205315
 H                 14.46433544   13.92568874   12.04199600
 C                 16.70861626    8.64709187   17.49355316
 Cl                18.13822937    7.99548435   18.29806137
 Cl                15.64589405    9.32663918   18.82677460
 Cl                17.14528847   10.01992130   16.40958214
 H                 16.20579529    7.89596748   16.88002205
 C                  1.30121517    4.40984440   13.11884212
 Cl                -0.08392715    4.01912832   12.00665474
 Cl                 0.87178707    5.28102779   14.66393948
 Cl                 1.89348793    2.79447937   13.52938557
 H                  2.08092976    5.00006580   12.61793041
 C                  1.46599197    4.43767357    7.84594727
 Cl                 2.42221165    3.41288614    8.94387627
 Cl                -0.20271397    4.53131580    8.50283432
 Cl                 2.25319052    6.03489113    7.96605301
 H                  1.55135059    3.99895763    6.85303879
 C                 18.15857315   12.31853962    0.83795357
 Cl                19.68952179   12.71106434    1.72317123
 Cl                18.09067154   12.68790531   -0.90118980
 Cl                17.86953735   10.55470371    1.15685463
 H                 17.32819557   12.82250500    1.32615662
 C                  4.75703382   13.41266537   16.61021042
 Cl                 5.42088127   13.57390881   18.21373749
 Cl                 5.99514914   12.74726582   15.53122520
 Cl                 3.21664619   12.47460079   16.77095222
 H                  4.49957561   14.38984394   16.23516846
 C                  5.58970165    3.19901037   12.91636276
 Cl                 4.92801571    4.25207472   14.15288639
 Cl                 5.14946556    1.51882553   13.31680870
 Cl                 4.93368864    3.66463041   11.31461906
 H                  6.66787052    3.35895157   12.95062637
 C                 13.09032249   18.62454605   17.99859428
 Cl                13.20645905   16.96139145   17.34454346
 Cl                11.67779827   18.61341095   19.13088417
 Cl                14.61428547   19.08939934   18.76660347
 H                 12.91741848   19.32459641   17.19740295
 C                 13.00670528    8.00260544   15.41710854
 Cl                13.73884201    9.55189610   14.96535301
 Cl                13.85024166    7.05701542   16.65832520
 Cl                11.28973103    8.22201729   15.97147751
 H                 13.06688404    7.38818741   14.54402733
 C                  0.85053635   16.67240143    4.07487106
 Cl                -0.85647202   16.57755661    4.69100380
 Cl                 0.83787155   16.67101669    2.24187088
 Cl                 1.75062561   18.11814499    4.69025230
 H                  1.32489204   15.68131828    4.34321213
 C                 14.52394676   12.81328106   17.50368881
 Cl                13.41018295   12.69984531   16.12658691
 Cl                15.61500549   14.20964909   17.16797638
 Cl                13.64023304   13.06615353   19.02900314
 H                 15.12612343   11.89857960   17.62057495
 C                  1.74573612    9.10331726   18.23641777
 Cl                 0.80721474    9.84175014   16.81484604
 Cl                 1.09776402    9.69136524   19.75650406
 Cl                 1.62227345    7.30046558   18.30330658
 H                  2.83875465    9.39765263   18.23689270
 C                  5.58079481   16.61782074    3.16052437
 Cl                 6.16244221   17.65409660    4.49032784
 Cl                 4.91828251   15.06240463    3.79461288
 Cl                 4.20358229   17.33498001    2.31061935
 H                  6.28601313   16.34210205    2.41226959
 C                 17.62813568    3.96782207   18.55808258
 Cl                17.39684296    2.20543194   18.69766998
 Cl                18.35074615    4.22604847   16.93613052
 Cl                16.01943207    4.68785763   18.56541061
 H                 18.26110840    4.28909969   19.35568428
 C                  5.14844227   16.69778824   13.56483269
 Cl                 6.70855808   15.89979172   13.88014793
 Cl                 3.86329937   15.44910240   13.80545807
 Cl                 4.91735983   18.07322693   14.73943806
 H                  5.06778049   16.98539352   12.51634979
 C                 13.29318142    2.31088305    8.04267693
 Cl                11.66584396    1.83229637    7.49691963
 Cl                14.64292336    2.03332520    6.84515572
 Cl                13.30782318    4.03624725    8.48751259
 H                 13.52098274    1.77806282    8.96948242
 C                  6.58686638   13.44502735   10.92584610
 Cl                 6.85494900   12.07084846    9.84194660
 Cl                 7.63083935   14.71903133   10.33549500
 Cl                 4.93778038   13.94472599   10.71537971
 H                  6.80621862   13.19694996   11.98184299
 C                 15.83251095   16.68351364    1.39361763
 Cl                16.00287628   15.62517452    2.79462051
 Cl                16.95406151   15.99595261    0.16671371
 Cl                14.12292671   16.64020538    0.83147049
 H                 16.11922264   17.68198967    1.67250633
 C                 12.69734287   16.13995361    5.08840561
 Cl                12.89093590   17.76392365    4.32852364
 Cl                14.28598785   15.32103825    5.41984367
 Cl                11.57194614   16.23300934    6.49621391
 H                 12.23598671   15.46057415    4.35662842
 C                 10.51548862   19.47937012   14.09150696
 Cl                12.15913582   19.76976776   14.71070862
 Cl                10.74723244   18.98027039   12.43087006
 Cl                 9.78417492   18.19374466   15.07686043
 H                  9.87604904   20.35834503   14.15467262
 C                 10.93639469   14.41197681   14.11498260
 Cl                12.06841946   15.54651737   14.83902931
 Cl                 9.59445381   14.16737080   15.21650887
 Cl                10.28619671   14.94378376   12.55058289
 H                 11.52021313   13.47085476   13.97845268
 C                  8.51674843   16.90083122   18.36935806
 Cl                 9.50464249   15.45330620   18.82748413
 Cl                 7.23140192   16.53830719   17.19766998
 Cl                 7.85866976   17.75544739   19.89792061
 H                  9.21940613   17.55405807   17.88076973
 C                  9.87862206    0.46516991    4.16804504
 Cl                10.13537788    2.07875729    4.71605301
 Cl                10.02455616   -0.64027691    5.58000374
 Cl                 8.30646229    0.33368301    3.37318802
 H                 10.59160995    0.17659950    3.45186234
 C                 -0.16878510   11.58295918    7.64940071
 Cl                18.31003571   10.47647762    7.69534492
 Cl                 0.18772697   12.32854366    9.24292946
 Cl                 1.22910881   10.56426525    7.07342148
 H                 -0.31964493   12.37743282    6.87025261
 C                 11.25345421    6.75712776    6.03432465
 Cl                10.23597145    5.46586990    6.60185432
 Cl                10.16006660    8.06016827    5.45162201
 Cl                12.31851768    7.41690826    7.31774521
 H                 11.84009075    6.37140465    5.22659874
 C                  4.37924337   12.04202271    1.35824203
 Cl                 3.64482021   13.60319042    0.91045380
 Cl                 3.40929937   11.20458317    2.49977112
 Cl                 4.40569162   10.75737953    0.02407455
 H                  5.36747551   12.16861343    1.77528000
 C                 17.19058037   19.31922150   16.14425468
 Cl                15.57574749   18.96862602   15.48545456
 Cl                18.08765602   17.79594612   16.21076202
 Cl                18.10637093   20.46567154   15.17321777
 H                 17.03793907   19.72903442   17.16450119
 C                 10.14066124    3.45848751   12.43190002
 Cl                11.73680210    2.68435478   12.47949123
 Cl                 9.16097832    2.69438887   11.15775776
 Cl                 9.33257198    3.06667900   13.94927597
 H                 10.19964981    4.55907536   12.33209991
 C                  5.04536343    8.09141254   15.14536572
 Cl                 3.57386875    7.00425625   15.34320354
 Cl                 5.08221149    9.26577663   16.47546005
 Cl                 6.43695259    7.04344273   15.32869434
 H                  5.08348894    8.54101849   14.16866302
 C                 13.94673252   17.56228065    9.56166935
 Cl                12.69671059   18.60520935    8.75850201
 Cl                13.05006599   16.28789139   10.35731792
 Cl                15.10029793   16.93434525    8.32293224
 H                 14.55345249   18.13579941   10.29393196
 C                 15.25340652   10.78215599    3.93573380
 Cl                16.62063217    9.61920357    4.15899658
 Cl                16.04577827   12.33925152    3.98265457
 Cl                14.46585560   10.56026173    2.32591629
 H                 14.59674072   10.66205120    4.76476669
 C                  0.93711758   18.64345932   13.21579361
 Cl                 2.39112854   18.44386101   12.15364647
 Cl                -0.15352821   17.26888275   12.90771675
 Cl                 1.29979897   18.74097443   14.96239090
 H                  0.41065025   19.58148193   12.91496277
 C                  5.33752632    0.06061459   19.83256149
 Cl                 5.85313368    1.71235561   20.37710190
 Cl                 3.57748604   -0.03776836   20.03364563
 Cl                 5.74518251   -0.21777344   18.12338829
 H                  5.71063137   -0.74208641   20.45656967
 C                  9.38924408   12.29201603    5.56261444
 Cl                 8.61512089   13.81613064    5.23718834
 Cl                11.08095169   11.98490429    4.98187065
 Cl                 9.31906605   12.37536335    7.31770325
 H                  8.75336933   11.42482090    5.26909447
 C                 18.42359352    8.09867859   13.16229630
 Cl                18.35180664    7.34511375   11.51392269
 Cl                17.61911964    9.76173592   13.19277763
 Cl                17.41875267    7.10520744   14.25721455
 H                 19.44143486    8.02576542   13.55022049
 C                 -0.00376511   19.00349617    9.02470398
 Cl                 1.30931854   18.32646561    8.06909370
 Cl                 0.73126602   20.60229111    9.50164795
 Cl                -1.44182301   19.10899353    8.02853394
 H                 -0.19218349   18.36475945    9.94128418
 C                  7.68998051   10.44906521   17.85687637
 Cl                 8.49733639   10.36551094   16.29371262
 Cl                 7.73926640    8.80612373   18.52988052
 Cl                 8.57740784   11.49407959   18.89855194
 H                  6.68490314   10.84727764   17.68627930
 C                 17.67645454    3.88925409    4.85719681
 Cl                19.11718941    3.05104113    5.33160973
 Cl                17.37680054    5.16053486    6.06949997
 Cl                17.95462990    4.60688782    3.21068954
 H                 16.78706551    3.21476793    4.87725830
 C                  5.72255135    3.36973286    8.06311607
 Cl                 5.53972340    4.26381731    6.52517128
 Cl                 5.01142073    1.73509693    7.92479706
 Cl                 7.48142910    3.22642183    8.25306702
 H                  5.33237076    3.94948101    8.85401344
 C                  5.07414246    7.13275051    1.02972031
 Cl                 5.50007248    6.68729305   -0.57900429
 Cl                 4.98878193    5.60987473    1.98192024
 Cl                 6.31734657    8.20468426    1.70883560
 H                  4.11413717    7.69142818    0.99556732
 C                  2.83826447   13.87101460    6.20526695
 Cl                 1.99678040   15.29736805    6.83698082
 Cl                 3.26369381   12.89267635    7.62923431
 Cl                 1.75908756   12.89127254    5.15534973
 H                  3.74729490   14.17622089    5.65905762
 C                  7.69548035   17.92445755    9.77321243
 Cl                 7.48799849   18.66234589   11.42816257
 Cl                 6.71425724   18.58999443    8.49017715
 Cl                 9.38961124   17.47539902    9.29378033
 H                  7.22007751   16.98074722    9.90506649
 C                 11.72065353    8.94744587    0.36184311
 Cl                11.42222595    7.62454128   -0.77526093
 Cl                11.57840347   10.37519360   -0.57801437
 Cl                10.52960300    8.94808102    1.62814522
 H                 12.75625706    8.91143894    0.79135132
 C                  8.88948154    2.19404030   18.64105225
 Cl                 9.63309097    3.68649578   18.01313019
 Cl                 8.91387081    0.88710880   17.41113853
 Cl                 9.68558788    1.57511330   20.11711121
 H                  7.83783627    2.39513922   18.85647964
 C                 11.21263027   14.39130688    1.48668098
 Cl                 9.71446609   13.39817333    1.57819366
 Cl                10.88510132   15.84056950    2.40220070
 Cl                12.52496910   13.43250751    2.19339752
 H                 11.36795616   14.71657658    0.48927689
 C                  1.37427902   11.65791035   13.13620281
 Cl                 2.91977596   12.38355160   12.78647995
 Cl                 1.74526405    9.96597195   13.54501724
 Cl                 0.40098095   12.58856106   14.31876373
 H                  0.84557915   11.63879299   12.17139435
 C                 15.22606087    7.80071449    9.79370117
 Cl                14.95515728    9.33379269    8.90090370
 Cl                13.67061043    7.44785309   10.60949898
 Cl                15.72572708    6.50073338    8.76269245
 H                 15.96478081    8.00510883   10.58247280
 C                 14.68451977    6.19623852    2.22447586
 Cl                13.71014786    5.79235268    0.80380630
 Cl                16.19999313    7.13426685    1.82793236
 Cl                13.69161701    7.20513535    3.32717896
 H                 14.98947906    5.28721142    2.72225952
 C                  1.86132812    3.47560549   17.78806877
 Cl                 1.80850983    1.88756561   16.98686218
 Cl                 1.00717354    3.35470867   19.31146240
 Cl                 3.49194145    4.14525032   18.11793900
 H                  1.46246624    4.23871183   17.16821289
 C                  0.33202457    7.77337742    3.16057968
 Cl                 1.79002094    8.74904823    3.47405243
 Cl                 0.55165577    6.60972500    1.87279892
 Cl                 0.26752377    6.90738773    4.68405914
 H                 -0.58353996    8.38139629    3.03820038
 C                  8.95910358    5.74913692    2.42254066
 Cl                 7.97508144    4.95991707    3.71332550
 Cl                10.61500549    5.34618473    2.83078003
 Cl                 8.40615368    5.31102180    0.77930069
 H                  8.83811092    6.82471561    2.49531937
 C                 14.03694534    1.87136936    2.17263794
 Cl                13.16924953    2.96876907    3.22886658
 Cl                15.66604614    1.72344780    2.99414825
 Cl                13.18176460    0.28366661    2.26565552
 H                 14.20332718    2.26116800    1.12287140
 C                  5.32990265    9.55316639    5.93611526
 Cl                 5.73766184   11.22973156    5.40427017
 Cl                 6.34759188    8.43309021    5.05548477
 Cl                 5.84796143    9.40441418    7.65683174
 H                  4.28372812    9.49100685    5.64903259
 C                  1.34337330   16.19356918   17.62365913
 Cl                 1.00108528   15.16761684   18.99853134
 Cl                 3.10062742   16.34019089   17.42660141
 Cl                 0.77380371   15.44179249   16.01620483
 H                  0.87677956   17.15013123   17.75654221
 C                 13.07981873    2.22076941   16.79850006
 Cl                14.76549149    1.98341465   16.19038391
 Cl                12.84604645    2.14419842   18.57342529
 Cl                12.42634964    3.77841043   16.21557426
 H                 12.44113541    1.40174961   16.46069717
 C                 16.46368599   19.63638687   12.02880383
 Cl                14.90315342   20.22113037   11.37103558
 Cl                16.86401558   18.04682922   11.42158508
 Cl                17.75466156   20.84185600   11.54753971
 H                 16.48430634   19.53297806   13.12614441
 C                  3.65143204    2.43284512    4.00757408
 Cl                 4.67979813    1.01241589    3.80428696
 Cl                 2.77310133    2.78376627    2.45258331
 Cl                 2.46960354    2.14323521    5.29661751
 H                  4.35728025    3.26675797    4.25395775
 C                 19.83465958   19.88571548    1.38100052
 Cl                19.74539185   19.66836166   -0.42133713
 Cl                19.67888451   21.64182281    1.84013367
 Cl                18.48114395   18.95615768    2.05809021
 H                 20.78943825   19.47850037    1.76253128
 C                  7.72318459    7.00015926   10.78126335
 Cl                 6.30262280    6.25746727    9.99713421
 Cl                 7.82113934    6.38927746   12.43557930
 Cl                 9.25074673    6.54223156    9.91786957
 H                  7.60019016    8.09578896   10.81953049
 C                 15.31268215    3.88869905   12.62866306
 Cl                14.34669399    5.35458279   12.99382973
 Cl                15.98108768    4.05052710   10.95788193
 Cl                16.62703133    3.71632099   13.77675438
 H                 14.70853615    3.02427101   12.64512920
 C                  3.34770107    8.43572903   10.54852104
 Cl                 4.44952202    8.08930874   11.88559341
 Cl                 1.70466232    7.96431541   11.08169270
 Cl                 3.53183270   10.26303387   10.15697956
 H                  3.54430819    7.82065010    9.64462757

