! aug-cc-pVTZ aug-cc-pVTZ/C DLPNO-CCSD(T) TightSCF TightPNO MiniPrint
%pal nproc 4 end
%maxcore 4000
%mdci
    density none
end

* xyz 0 1
 7     -2.59192633      -2.21198727      0.00000000
 1     -1.59236633      -2.24165327      0.00000000
 6     -3.27888033      -0.93617527      0.00000000
 1     -3.90371333      -0.85937227      -0.88982300
 6     -4.16550333      -0.79005327      1.23214100
 6     -2.28840133      0.21943573      0.00000000
 1     -3.55273033      -0.85570127      2.13119600
 8     -1.05147533      -0.01204927      0.00000000
 7     -2.77667751      1.60597328      0.00000000
 1     -3.75940664      1.78999823      0.01945589
 6     -1.83400333      2.70605177      -0.02819160
 1     -1.18843233      2.65457504      0.84855703
 6     -0.96291102      2.65067712      -1.27869361
 6     -2.55550915      4.04615879      -0.02290161
 1     -1.59452197      2.71041340      -2.16503412
 8     -3.81307605      4.08358957      0.00347381
 8     -1.80434931      5.26272519      -0.04790345
 6     -2.67382049      6.36615255      0.21924434
 1     -2.10181533      7.26956764      0.25863055
 1     -3.40495648      6.44054804      -0.55844805
 1     -3.16527271      6.21398306      1.15744430
 9     -0.27272247      1.49057508      -1.29610041
 9     -0.09860228      3.68770506      -1.27210138
 9     -4.78867798      0.40706316      1.19949702
 9     -5.08726239      -1.77632376      1.24357513
 6     -3.36436997      -3.46267940      0.00000000
 8     -4.58360264      -3.47888425      -0.13970006
 6     -2.54201660      -4.75124686      0.18689264
 1     -2.19710799      -5.09555021      -0.76567927
 1     -1.70233399      -4.54997614      0.81881289
 1     -3.15523271      -5.50351722      0.63739824
*

