%nprocshared=16
%mem=32GB
#p opt b3lyp/6-31g(d)

title

0 1
N  -2.59192633 -2.21198727 0.00000000
H  -1.59236633 -2.24165327 0.00000000
C  -3.27888033 -0.93617527 0.00000000
H  -3.90371333 -0.85937227 -0.88982300
C  -4.16550333 -0.79005327 1.23214100
C  -2.28840133 0.21943573 0.00000000
H  -3.55273033 -0.85570127 2.13119600
O  -1.05147533 -0.01204927 0.00000000
N  -2.77667751 1.60597328 0.00000000
H  -3.75940664 1.78999823 0.01945589
C  -1.83400333 2.70605177 -0.02819160
H  -1.18843233 2.65457504 0.84855703
C  -0.96291102 2.65067712 -1.27869361
C  -2.55550915 4.04615879 -0.02290161
H  -1.59452197 2.71041340 -2.16503412
O  -3.81307605 4.08358957 0.00347381
O  -1.80434931 5.26272519 -0.04790345
C  -2.67382049 6.36615255 0.21924434
H  -2.10181533 7.26956764 0.25863055
H  -3.40495648 6.44054804 -0.55844805
H  -3.16527271 6.21398306 1.15744430
F  -0.27272247 1.49057508 -1.29610041
F  -0.09860228 3.68770506 -1.27210138
F  -4.78867798 0.40706316 1.19949702
F  -5.08726239 -1.77632376 1.24357513
C  -3.36436997 -3.46267940 0.00000000
O  -4.58360264 -3.47888425 -0.13970006
C  -2.54201660 -4.75124686 0.18689264
H  -2.19710799 -5.09555021 -0.76567927
H  -1.70233399 -4.54997614 0.81881289
H  -3.15523271 -5.50351722 0.63739824

