! aug-cc-pVTZ aug-cc-pVTZ/C DLPNO-CCSD(T) TightSCF TightPNO
%maxcore 4000
%mdci
	density none
end
%pal
	nproc 4
end

* xyz 0 1
 6          3.79652596    0.46815601    0.20209999
 6          2.66673899    0.60734802   -0.52625102
 7          1.42538500    0.20665900   -0.07676000
 6          1.26955795   -0.34929901    1.18725204
 8          0.18041100   -0.71265501    1.63162005
 7          2.43184590   -0.47540599    1.91073096
 6          3.73545289   -0.11549100    1.52572405
 8          4.67861795   -0.30216500    2.28920293
 6          0.24632400    0.38012901   -0.93791199
 6         -0.51274401   -0.91734803   -1.29831696
 6         -1.88977695   -0.74266100   -0.61182201
 6         -2.01004004    0.77458602   -0.42726800
 8         -0.66094297    1.26333296   -0.31069601
 6         -2.77218390    1.21228397    0.81373602
 8         -2.33496690    0.55879700    1.99544895
 8         -2.95536399   -1.19461799   -1.44108701
 8         -0.67888999   -0.95649999   -2.70483994
 1          4.75414419    0.79130799   -0.18312301
 1          2.67304993    1.04308605   -1.51826096
 1          2.32396412   -0.88040203    2.83582807
 1          0.62573397    0.81626600   -1.86538696
 1          0.02306500   -1.80613399   -0.94682199
 1         -1.90344405   -1.24482000    0.35423499
 1         -2.48201895    1.20540404   -1.32122397
 1         -3.83222198    0.97172397    0.67614400
 1         -2.68367600    2.30559611    0.90583497
 1         -1.37245500    0.40860599    1.91688704
 1         -3.11924696   -2.13113403   -1.23921502
 1         -1.62284505   -1.18464899   -2.83575797
*

