%nprocshared=16GB
%mem=32GB
#p opt freq=noraman b3lyp/genecp empiricaldispersion=gd3bj

title

0 1
 6 0.23402700 0.39962000 -0.00000200
 6 -1.17088400 -0.14858400 -0.00000100
 1 0.30089700 1.51180200 -0.00000700
 1 -1.71338000 0.21921400 -0.88091800
 6 -1.14803390 -1.69069660 -0.00029610
 1 -1.71325600 0.21888400 0.88113500
 8 1.23769700 -0.27692200 0.00000200
 6 0.27838066 -2.18012367 -0.01055229
 1 0.88497609 -1.83175292 -0.87778939
 1 -1.65851519 -2.01398461 -0.91707620
 1 -1.67650949 -2.07241220 0.87610935
 8 0.76759395 -2.89530851 0.83457702

