%nprocshared=16GB
%mem=32GB
#p opt b3lyp/midix

None

0 1
 6 0.23402700 0.39962000 -0.00000200
 6 -1.17088400 -0.14858400 -0.00000100
 1 0.30089700 1.51180200 -0.00000700
 1 -1.71338000 0.21921400 -0.88091800
 1 -1.15470100 -1.24074600 -0.00021000
 1 -1.71325600 0.21888400 0.88113500
 8 1.23769700 -0.27692200 0.00000200

