%nprocshared=16GB
%mem=32GB
#p opt b3lyp/midix

None

0 1
 6 0.23402700 0.39962000 -0.00000200
 6 -1.62915247 -0.32740288 -0.00000067
 1 0.30089700 1.51180200 -0.00000700
 1 -2.17164847 0.04039512 -0.88091767
 1 -1.61296947 -1.41956488 -0.00020967
 1 -2.17152447 0.04006512 0.88113533
 8 1.23769700 -0.27692200 0.00000200

