%nprocshared=16GB
%mem=32GB
#p opt b3lyp/midix

None

0 1
 6 -5.25541200 -0.33930900 2.27491600
 1 -5.03952200 -0.81509300 3.23910000
 1 -4.62406300 0.54022000 2.18244800
 7 -5.01627300 -1.29723700 1.20421100
 6 -4.17195500 -1.14691400 0.15220100
 8 -3.92860800 -2.07105900 -0.63642000
 6 -3.50792900 0.21735200 -0.11038900
 1 -3.35374300 0.79037200 0.80072500
 6 -1.00904700 0.27386200 -0.07109800
 6 0.98925387 0.10426574 -1.58501817
 6 0.77235517 1.26797737 -2.33172094
 6 2.13175444 -0.66633481 -1.82413282
 6 1.71495501 1.65908512 -3.28007397
 1 -0.12187232 1.85322876 -2.17585772
 6 3.05384267 -0.26778491 -2.79045367
 1 2.30345354 -1.56820898 -1.24553044
 6 2.86182129 0.90264629 -3.52099378
 1 3.58569232 1.21554608 -4.26336949
 6 4.24226904 -1.13993463 -3.08113004
 6 1.51014213 2.94802635 -4.02664041
 9 5.29819750 -0.42521445 -3.52627425
 9 4.64884108 -1.82521096 -1.98870720
 9 3.96457563 -2.06197993 -4.03553090
 9 2.06617625 2.91155707 -5.25897091
 9 2.07022674 3.99664694 -3.37813197
 9 0.20069252 3.24110738 -4.18479073
 7 0.06460900 -0.37227400 -0.63758000
 7 -2.18318600 -0.09285400 -0.63084700
 6 -4.32600900 1.10136400 -1.11449600
 6 -3.58009500 2.43292600 -1.29611900
 6 -4.47087800 0.41006400 -2.47967500
 6 -5.72170500 1.38683600 -0.53736600
 1 -3.47774600 2.96681300 -0.34547000
 1 -2.57669800 2.27745700 -1.70403100
 1 -4.13099900 3.07697800 -1.99169100
 1 -5.00294600 -0.54224800 -2.40200700
 1 -5.02925000 1.05966400 -3.16351000
 1 -3.49350500 0.21582800 -2.93577800
 1 -6.27405600 2.04476600 -1.21777400
 1 -6.30997800 0.47169200 -0.41209000
 1 -5.65976900 1.89239200 0.43261300
 1 -2.19755100 -0.90153100 -1.24879100
 1 0.32840185 -1.25435788 -0.21025982
 6 -5.70183400 -2.57293600 1.37756300
 1 -6.76501900 -2.39188900 1.57097700
 1 -5.58665700 -3.16701700 0.47301900
 1 -5.28130700 -3.12333000 2.22883700
 1 -6.30412700 -0.01990000 2.27474200
16 -0.87547400 1.39792800 1.18703500

