%nprocshared=16GB
%mem=32GB
#p opt b3lyp/midix

None

0 1
 6 -5.25541200 -0.33930900 2.27491600
 1 -5.03952200 -0.81509300 3.23910000
 1 -4.62406300 0.54022000 2.18244800
 7 -5.01627300 -1.29723700 1.20421100
 6 -4.17195500 -1.14691400 0.15220100
 8 -3.92860800 -2.07105900 -0.63642000
 6 -3.50792900 0.21735200 -0.11038900
 1 -3.35374300 0.79037200 0.80072500
 6 -1.00904700 0.27386200 -0.07109800
 6 0.11666133 -1.14844464 -1.80999078
 6 -1.03250020 -1.62882290 -2.44834751
 6 1.37774030 -1.50000411 -2.30232641
 6 -0.90310768 -2.42393534 -3.58495958
 1 -2.01024277 -1.38809522 -2.05780305
 6 1.48617067 -2.31190441 -3.43012314
 1 2.27052095 -1.12763785 -1.81046832
 6 0.34933615 -2.77393027 -4.08937243
 1 0.43684318 -3.39549225 -4.97199379
 6 2.84668279 -2.73404673 -3.90792831
 6 -2.14240642 -2.87598965 -4.30639204
 9 2.86773469 -2.96233803 -5.23886900
 9 3.79012230 -1.80266385 -3.64195844
 9 3.25398644 -3.87998176 -3.30867978
 9 -1.95776108 -4.05960398 -4.93417037
 9 -2.52149779 -1.98740191 -5.25537290
 9 -3.19226617 -3.02442715 -3.46893930
 7 0.06460900 -0.37227400 -0.63758000
 7 -2.18318600 -0.09285400 -0.63084700
 6 -4.32600900 1.10136400 -1.11449600
 6 -3.58009500 2.43292600 -1.29611900
 6 -4.47087800 0.41006400 -2.47967500
 6 -5.72170500 1.38683600 -0.53736600
 1 -3.47774600 2.96681300 -0.34547000
 1 -2.57669800 2.27745700 -1.70403100
 1 -4.13099900 3.07697800 -1.99169100
 1 -5.00294600 -0.54224800 -2.40200700
 1 -5.02925000 1.05966400 -3.16351000
 1 -3.49350500 0.21582800 -2.93577800
 1 -6.27405600 2.04476600 -1.21777400
 1 -6.30997800 0.47169200 -0.41209000
 1 -5.65976900 1.89239200 0.43261300
 1 -2.19755100 -0.90153100 -1.24879100
 1 0.97568666 -0.13877725 -0.25590220
 6 -5.70183400 -2.57293600 1.37756300
 1 -6.76501900 -2.39188900 1.57097700
 1 -5.58665700 -3.16701700 0.47301900
 1 -5.28130700 -3.12333000 2.22883700
 1 -6.30412700 -0.01990000 2.27474200
16 -0.87547400 1.39792800 1.18703500

