%nprocshared=16GB
%mem=32GB
#p opt b3lyp/midix

None

0 1
 6 -5.25541200 -0.33930900 2.27491600
 1 -5.03952200 -0.81509300 3.23910000
 1 -4.62406300 0.54022000 2.18244800
 7 -5.01627300 -1.29723700 1.20421100
 6 -4.17195500 -1.14691400 0.15220100
 8 -3.92860800 -2.07105900 -0.63642000
 6 -3.50792900 0.21735200 -0.11038900
 1 -3.35374300 0.79037200 0.80072500
 6 -1.00904700 0.27386200 -0.07109800
 6 0.63755808 -0.19489874 -1.91035835
 6 -0.00811858 0.50245842 -2.93779664
 6 1.87101177 -0.80542668 -2.15966982
 6 0.60346547 0.60575546 -4.18524519
 1 -0.97497258 0.95126392 -2.76395100
 6 2.45781166 -0.70616103 -3.42009710
 1 2.37480705 -1.34534983 -1.36448956
 6 1.83709736 0.00784393 -4.44253581
 1 2.30086081 0.09254486 -5.41760835
 6 3.75080360 -1.42189962 -3.69099424
 6 -0.06267903 1.41722055 -5.26156074
 9 4.48376589 -0.80151731 -4.64065486
 9 4.52049984 -1.51710183 -2.58338583
 9 3.53976958 -2.68854886 -4.12599596
 9 0.23716271 0.95873817 -6.49810077
 9 0.32500103 2.71417279 -5.22306144
 9 -1.40873869 1.40851926 -5.14488181
 7 0.06460900 -0.37227400 -0.63758000
 7 -2.18318600 -0.09285400 -0.63084700
 6 -4.32600900 1.10136400 -1.11449600
 6 -3.58009500 2.43292600 -1.29611900
 6 -4.47087800 0.41006400 -2.47967500
 6 -5.72170500 1.38683600 -0.53736600
 1 -3.47774600 2.96681300 -0.34547000
 1 -2.57669800 2.27745700 -1.70403100
 1 -4.13099900 3.07697800 -1.99169100
 1 -5.00294600 -0.54224800 -2.40200700
 1 -5.02925000 1.05966400 -3.16351000
 1 -3.49350500 0.21582800 -2.93577800
 1 -6.27405600 2.04476600 -1.21777400
 1 -6.30997800 0.47169200 -0.41209000
 1 -5.65976900 1.89239200 0.43261300
 1 -2.19755100 -0.90153100 -1.24879100
 1 0.62160990 -0.94300939 -0.00966895
 6 -5.70183400 -2.57293600 1.37756300
 1 -6.76501900 -2.39188900 1.57097700
 1 -5.58665700 -3.16701700 0.47301900
 1 -5.28130700 -3.12333000 2.22883700
 1 -6.30412700 -0.01990000 2.27474200
16 -0.87547400 1.39792800 1.18703500

