%nprocshared=16GB
%mem=32GB
#p opt b3lyp/midix

None

0 1
 6 -5.25541200 -0.33930900 2.27491600
 1 -5.03952200 -0.81509300 3.23910000
 1 -4.62406300 0.54022000 2.18244800
 7 -5.01627300 -1.29723700 1.20421100
 6 -4.17195500 -1.14691400 0.15220100
 8 -3.92860800 -2.07105900 -0.63642000
 6 -3.50792900 0.21735200 -0.11038900
 1 -3.35374300 0.79037200 0.80072500
 6 -1.00904700 0.27386200 -0.07109800
 6 1.39958079 -0.43082716 -0.19699040
 6 1.91084186 0.43344543 0.77793514
 6 2.25048805 -1.35028032 -0.81898019
 6 3.25362923 0.34258655 1.13779619
 1 1.26880062 1.16751846 1.24202045
 6 3.59532910 -1.41297205 -0.45795802
 1 1.85652981 -2.02284247 -1.57402680
 6 4.10926501 -0.57608010 0.52994481
 1 5.15217555 -0.63481377 0.81613566
 6 4.51045985 -2.36033242 -1.18082674
 6 3.77779710 1.22501315 2.23654574
 9 5.53864950 -2.76348428 -0.40348650
 9 3.86276610 -3.46969780 -1.60283788
 9 5.05498250 -1.78721517 -2.28227753
 9 5.09042816 1.50755285 2.07433162
 9 3.65321720 0.63953940 3.45127346
 9 3.11801134 2.40233096 2.30113556
 7 0.06460900 -0.37227400 -0.63758000
 7 -2.18318600 -0.09285400 -0.63084700
 6 -4.32600900 1.10136400 -1.11449600
 6 -3.58009500 2.43292600 -1.29611900
 6 -4.47087800 0.41006400 -2.47967500
 6 -5.72170500 1.38683600 -0.53736600
 1 -3.47774600 2.96681300 -0.34547000
 1 -2.57669800 2.27745700 -1.70403100
 1 -4.13099900 3.07697800 -1.99169100
 1 -5.00294600 -0.54224800 -2.40200700
 1 -5.02925000 1.05966400 -3.16351000
 1 -3.49350500 0.21582800 -2.93577800
 1 -6.27405600 2.04476600 -1.21777400
 1 -6.30997800 0.47169200 -0.41209000
 1 -5.65976900 1.89239200 0.43261300
 1 -2.19755100 -0.90153100 -1.24879100
 1 -0.15258656 -1.02335534 -1.38536363
 6 -5.70183400 -2.57293600 1.37756300
 1 -6.76501900 -2.39188900 1.57097700
 1 -5.58665700 -3.16701700 0.47301900
 1 -5.28130700 -3.12333000 2.22883700
 1 -6.30412700 -0.01990000 2.27474200
16 -0.87547400 1.39792800 1.18703500

