%nprocshared=16
%mem=32GB
#p opt=modredundant b3lyp/6-31+g(d) scrf=(smd,solvent=tetrahydrofuran)

title

-1 1
 C                 -0.19426300   -0.29199900   -0.21290800
 O                 -0.25532100   -0.66525600   -1.45425500
 C                 -0.33094500   -1.45422100    0.81631600
 H                 -0.18039400   -1.13043800    1.85373400
 H                 -1.34066500   -1.87301000    0.71427200
 H                  0.39706800   -2.23394900    0.57058300
 Cl                -1.15224600    0.92328400    0.19373400
 C                  1.38184500    0.25991200    0.10533900
 N                  2.51641600    0.54021000    0.13564200

B 1 7 F
B 1 8 F

