%nprocshared=16
%mem=32GB
#p opt freq=noraman m062x/6-31g(d) scrf=(smd,solvent=diethylether)

title

0 1
 7 2.02288442 0.91339021 -0.03889200
 1 2.38284942 1.15695721 0.87730700
 6 1.88291642 -0.49209579 -0.36643300
 1 1.81695642 -0.58217679 -1.45488500
 6 3.09414442 -1.27278879 0.10164600
 6 0.61334642 -1.02707079 0.30548100
 1 3.21967842 -1.28478879 1.18641700
 8 0.64763742 -1.69004679 1.32772500
 7 -0.52775658 -0.61007179 -0.30615700
 1 -0.43374258 0.01721621 -1.10400700
 6 -1.76621958 -0.57985579 0.41892300
 1 -1.75592058 -1.37032279 1.17519000
 6 -1.91033158 0.77015021 1.12285600
 6 -2.94454858 -0.78471279 -0.52414300
 1 -2.77176858 0.84297921 1.78810000
 8 -2.85101958 -0.98184179 -1.70680900
 8 -4.09334058 -0.68915379 0.14710700
 6 -5.28108958 -0.83156379 -0.64562400
 1 -6.11278358 -0.71943479 0.04782000
 1 -5.31506158 -0.05741079 -1.41471200
 1 -5.30392258 -1.81692879 -1.11512000
 9 -2.00043558 1.74005121 0.16807700
 9 -0.77811858 1.02419321 1.82915500
 9 2.97141642 -2.54998579 -0.33904000
 9 4.21163742 -0.74564479 -0.46367700
 6 1.35952742 1.86657621 -0.75360700
 8 0.72683942 1.58937021 -1.76671800
 6 1.42755242 3.26395421 -0.19427300
 1 0.50518142 3.44381421 0.36813900
 1 2.28247842 3.41209221 0.46866700
 1 1.46791342 3.97618521 -1.01971700

