%nprocshared=16
%mem=32GB
#p opt freq=noraman m062x/6-31g(d) scrf=(smd,solvent=diethylether)

title

0 1
 7 2.02465037 0.82616784 0.47584868
 1 2.61115837 0.50028884 1.23418668
 6 1.81509437 -0.06336916 -0.64787832
 1 1.74585137 0.54350884 -1.55792732
 6 3.01310137 -0.98493816 -0.77180832
 6 0.53085237 -0.89598716 -0.52061932
 1 2.87972837 -1.77182916 -1.51378832
 8 0.54195337 -2.11860916 -0.53723032
 7 -0.59607263 -0.15819616 -0.40702132
 1 -0.54026163 0.85963384 -0.44650232
 6 -1.87964463 -0.80829516 -0.30517032
 1 -1.90098463 -1.69883016 -0.94063832
 6 -2.11615463 -1.26096116 1.13510068
 6 -3.02689263 0.10526484 -0.71868132
 1 -1.27330863 -1.83489916 1.52734868
 8 -4.15341263 -0.28850116 -0.87857932
 8 -2.64064263 1.37376784 -0.84114732
 6 -3.67561463 2.30405684 -1.18656832
 1 -3.18762863 3.27505084 -1.24762532
 1 -4.11812663 2.03437384 -2.14748332
 1 -4.44774163 2.30824784 -0.41472932
 9 -3.24310463 -2.00496416 1.21485568
 9 -2.29913063 -0.15742916 1.91268868
 9 4.11024037 -0.24666216 -1.08484432
 9 3.25985037 -1.55643316 0.44069968
 6 1.46262637 2.05916484 0.53067468
 8 0.67494937 2.44449684 -0.33090132
 6 1.85626837 2.91928584 1.70485168
 1 0.95197437 3.20250784 2.24943868
 1 2.55217137 2.42569884 2.38592068
 1 2.31528237 3.83494784 1.32254168

