%nprocshared=16
%mem=32GB
#p opt b3lyp/6-31+g(d) scrf=(smd, solvent=tetrahydrofuran)

title

-1 1
 C                  0.68954805    1.63964034    0.12322079
 O                  1.91686340    1.63964146    0.12523404
 C                 -0.13164808    0.33685988    0.12327487
 H                 -1.17524904    0.57307382    0.12336066
 H                  0.10479714   -0.23382824   -0.75040054
 H                  0.10493658   -0.23384419    0.99690211
 Cl                -0.24895939    3.12853063    0.12014178
 C                  1.99849551    4.34222330    0.30699808
 N                  3.15849551    4.34222330    0.30699808

